J1
  MOE2013           3D

 63 63  0  0  0  0  0  0  0  0999 V2000
    1.2080    0.6970    0.0000 C   0  0  0  0  0  0  0  0  0  0  0  0
    0.0000    1.3950    0.0000 C   0  0  0  0  0  0  0  0  0  0  0  0
    0.0000    2.4820    0.0000 H   0  0  0  0  0  0  0  0  0  0  0  0
   -1.2080    0.6980    0.0000 C   0  0  0  0  0  0  0  0  0  0  0  0
   -2.1490    1.2410    0.0000 H   0  0  0  0  0  0  0  0  0  0  0  0
   -1.2080   -0.6980    0.0000 C   0  0  0  0  0  0  0  0  0  0  0  0
   -2.1490   -1.2410    0.0000 H   0  0  0  0  0  0  0  0  0  0  0  0
    0.0000   -1.3950    0.0000 C   0  0  0  0  0  0  0  0  0  0  0  0
    0.0000   -2.7930    0.0000 N   0  0  0  0  0  0  0  0  0  0  0  0
    0.8750   -3.2980    0.0000 H   0  0  0  0  0  0  0  0  0  0  0  0
    1.2080   -0.6980    0.0000 C   0  0  0  0  0  0  0  0  0  0  0  0
    2.4000   -1.3860    0.0000 O   0  0  0  0  0  0  0  0  0  0  0  0
    3.1860   -0.8350    0.0000 H   0  0  0  0  0  0  0  0  0  0  0  0
    2.3850    1.3780    0.0000 C   0  0  0  0  0  0  0  0  0  0  0  0
    3.5110    0.6090    0.1310 N   0  0  0  0  0  0  0  0  0  0  0  0
    4.8060    1.2290    0.1410 C   0  0  0  0  0  0  0  0  0  0  0  0
    5.8690    0.1700    0.2960 C   0  0  0  0  0  0  0  0  0  0  0  0
    7.2290    0.8200    0.3060 C   0  0  0  0  0  0  0  0  0  0  0  0
    8.2910   -0.2390    0.4610 C   0  0  0  0  0  0  0  0  0  0  0  0
    9.6520    0.4120    0.4710 C   0  0  0  0  0  0  0  0  0  0  0  0
   10.7140   -0.6470    0.6260 C   0  0  0  0  0  0  0  0  0  0  0  0
   12.0750    0.0030    0.6360 C   0  0  0  0  0  0  0  0  0  0  0  0
   13.1370   -1.0560    0.7910 C   0  0  0  0  0  0  0  0  0  0  0  0
   14.4970   -0.4050    0.8020 C   0  0  0  0  0  0  0  0  0  0  0  0
   15.5600   -1.4640    0.9560 C   0  0  0  0  0  0  0  0  0  0  0  0
   16.9200   -0.8140    0.9670 C   0  0  0  0  0  0  0  0  0  0  0  0
   17.9830   -1.8730    1.1220 C   0  0  0  0  0  0  0  0  0  0  0  0
   19.3430   -1.2220    1.1320 C   0  0  0  0  0  0  0  0  0  0  0  0
   20.4050   -2.2810    1.2870 C   0  0  0  0  0  0  0  0  0  0  0  0
   21.3890   -1.8110    1.2940 H   0  0  0  0  0  0  0  0  0  0  0  0
   20.3440   -2.9810    0.4540 H   0  0  0  0  0  0  0  0  0  0  0  0
   20.2510   -2.8160    2.2240 H   0  0  0  0  0  0  0  0  0  0  0  0
   19.4040   -0.5210    1.9650 H   0  0  0  0  0  0  0  0  0  0  0  0
   19.4970   -0.6870    0.1950 H   0  0  0  0  0  0  0  0  0  0  0  0
   17.9210   -2.5730    0.2890 H   0  0  0  0  0  0  0  0  0  0  0  0
   17.8280   -2.4080    2.0590 H   0  0  0  0  0  0  0  0  0  0  0  0
   16.9810   -0.1130    1.8000 H   0  0  0  0  0  0  0  0  0  0  0  0
   17.0740   -0.2780    0.0300 H   0  0  0  0  0  0  0  0  0  0  0  0
   15.4980   -2.1650    0.1230 H   0  0  0  0  0  0  0  0  0  0  0  0
   15.4060   -1.9990    1.8930 H   0  0  0  0  0  0  0  0  0  0  0  0
   14.5590    0.2950    1.6350 H   0  0  0  0  0  0  0  0  0  0  0  0
   14.6510    0.1300   -0.1350 H   0  0  0  0  0  0  0  0  0  0  0  0
   13.0760   -1.7560   -0.0420 H   0  0  0  0  0  0  0  0  0  0  0  0
   12.9830   -1.5910    1.7280 H   0  0  0  0  0  0  0  0  0  0  0  0
   12.1360    0.7040    1.4690 H   0  0  0  0  0  0  0  0  0  0  0  0
   12.2290    0.5390   -0.3000 H   0  0  0  0  0  0  0  0  0  0  0  0
   10.6530   -1.3480   -0.2070 H   0  0  0  0  0  0  0  0  0  0  0  0
   10.5600   -1.1820    1.5630 H   0  0  0  0  0  0  0  0  0  0  0  0
    9.7130    1.1120    1.3040 H   0  0  0  0  0  0  0  0  0  0  0  0
    9.8060    0.9470   -0.4660 H   0  0  0  0  0  0  0  0  0  0  0  0
    8.2300   -0.9390   -0.3720 H   0  0  0  0  0  0  0  0  0  0  0  0
    8.1370   -0.7740    1.3980 H   0  0  0  0  0  0  0  0  0  0  0  0
    7.2900    1.5210    1.1390 H   0  0  0  0  0  0  0  0  0  0  0  0
    7.3830    1.3550   -0.6310 H   0  0  0  0  0  0  0  0  0  0  0  0
    5.8070   -0.5310   -0.5370 H   0  0  0  0  0  0  0  0  0  0  0  0
    5.7140   -0.3660    1.2320 H   0  0  0  0  0  0  0  0  0  0  0  0
    4.8670    1.9290    0.9740 H   0  0  0  0  0  0  0  0  0  0  0  0
    4.9600    1.7640   -0.7960 H   0  0  0  0  0  0  0  0  0  0  0  0
    3.4300   -0.3940    0.2200 H   0  0  0  0  0  0  0  0  0  0  0  0
    2.4350    2.5960   -0.1110 O   0  0  0  0  0  0  0  0  0  0  0  0
   -1.1780   -3.4730    0.0000 C   0  0  0  0  0  0  0  0  0  0  0  0
   -1.0960   -4.5640    0.1290 H   0  0  0  0  0  0  0  0  0  0  0  0
   -2.2570   -2.9100   -0.1330 O   0  0  0  0  0  0  0  0  0  0  0  0
  1  2  1  0  0  0  0
  1 11  2  0  0  0  0
  1 14  1  0  0  0  0
  2  3  1  0  0  0  0
  2  4  2  0  0  0  0
  4  5  1  0  0  0  0
  4  6  1  0  0  0  0
  6  7  1  0  0  0  0
  6  8  2  0  0  0  0
  8  9  1  0  0  0  0
  8 11  1  0  0  0  0
  9 10  1  0  0  0  0
  9 61  1  0  0  0  0
 11 12  1  0  0  0  0
 12 13  1  0  0  0  0
 14 15  1  0  0  0  0
 14 60  2  0  0  0  0
 15 16  1  0  0  0  0
 15 59  1  0  0  0  0
 16 17  1  0  0  0  0
 16 57  1  0  0  0  0
 16 58  1  0  0  0  0
 17 18  1  0  0  0  0
 17 55  1  0  0  0  0
 17 56  1  0  0  0  0
 18 19  1  0  0  0  0
 18 53  1  0  0  0  0
 18 54  1  0  0  0  0
 19 20  1  0  0  0  0
 19 51  1  0  0  0  0
 19 52  1  0  0  0  0
 20 21  1  0  0  0  0
 20 49  1  0  0  0  0
 20 50  1  0  0  0  0
 21 22  1  0  0  0  0
 21 47  1  0  0  0  0
 21 48  1  0  0  0  0
 22 23  1  0  0  0  0
 22 45  1  0  0  0  0
 22 46  1  0  0  0  0
 23 24  1  0  0  0  0
 23 43  1  0  0  0  0
 23 44  1  0  0  0  0
 24 25  1  0  0  0  0
 24 41  1  0  0  0  0
 24 42  1  0  0  0  0
 25 26  1  0  0  0  0
 25 39  1  0  0  0  0
 25 40  1  0  0  0  0
 26 27  1  0  0  0  0
 26 37  1  0  0  0  0
 26 38  1  0  0  0  0
 27 28  1  0  0  0  0
 27 35  1  0  0  0  0
 27 36  1  0  0  0  0
 28 29  1  0  0  0  0
 28 33  1  0  0  0  0
 28 34  1  0  0  0  0
 29 30  1  0  0  0  0
 29 31  1  0  0  0  0
 29 32  1  0  0  0  0
 61 62  1  0  0  0  0
 61 63  2  0  0  0  0
M  END
>  <name>
J1

>  <LOGEC50>
-0.85000002

>  <MolecularFormula>
C22H36N2O3

>  <ATCH1>
0.16869999

>  <ATCH2>
0.039099999

>  <ATCH3>
-0.0092000002

>  <ATCH4>
-0.1005

>  <ATCH5>
0.0027000001

>  <ATCH6>
-0.2403

>  <ATCH7>
-0.25209999

>  <ATCH8>
0.41769999

>  <ATCH9>
-0.41319999

>  <ATCH10>
-0.40329999

>  <DIPV_X>
2.1993001

>  <DIPV_Y>
-1.7847

>  <DIPV_Z>
-0.0244

>  <DIPMOM>
2.8324001

>  <ESDL1>
-0.54659998

>  <ESDL2>
-0.80540001

>  <ESDL3>
-1.7022001

>  <ESDL4>
-0.28920001

>  <ESDL5>
-1.2932

>  <ESDL6>
-1.4297

>  <ESDL7>
-0.40220001

>  <ESDL8>
-0.46579999

>  <ESDL9>
-0.60689998

>  <ESDL10>
-0.38960001

>  <NSDL1>
7.6718998

>  <NSDL2>
4.2388

>  <NSDL3>
1.1007

>  <NSDL4>
6.0696001

>  <NSDL5>
4.0671

>  <NSDL6>
1.0302

>  <NSDL7>
1.2752

>  <NSDL8>
1.456

>  <NSDL9>
0.49360001

>  <NSDL10>
0.67879999

>  <VDWVOL>
379.99982

>  <SURF_A>
488.07489

>  <MOFI_X>
766.60571

>  <MOFI_Y>
37378.305

>  <MOFI_Z>
36572.98

>  <PEAX_X>
22.059

>  <PEAX_Y>
0.50739998

>  <PEAX_Z>
3.2328999

>  <MOL_WT>
376.54135

>  <S8_1DX>
17.0896

>  <S8_1DY>
13.6199

>  <S8_1DZ>
7.0784001

>  <S8_1CX>
11.1982

>  <S8_1CY>
-4.9646001

>  <S8_1CZ>
-1.5653

>  <LOGP>
7.2389998

>  <M_PNT>
81

>  <SUM_F>
0.25

>  <SUM_R>
-0.23

$$$$
G2
  MOE2013           3D

 42 44  0  0  0  0  0  0  0  0999 V2000
    1.2080    0.6970    0.0000 C   0  0  0  0  0  0  0  0  0  0  0  0
    0.0000    1.3950    0.0000 C   0  0  0  0  0  0  0  0  0  0  0  0
    0.0000    2.4820    0.0000 H   0  0  0  0  0  0  0  0  0  0  0  0
   -1.2080    0.6980    0.0000 C   0  0  0  0  0  0  0  0  0  0  0  0
   -2.1490    1.2410    0.0000 H   0  0  0  0  0  0  0  0  0  0  0  0
   -1.2080   -0.6980    0.0000 C   0  0  0  0  0  0  0  0  0  0  0  0
   -2.1490   -1.2410    0.0000 H   0  0  0  0  0  0  0  0  0  0  0  0
    0.0000   -1.3950    0.0000 C   0  0  0  0  0  0  0  0  0  0  0  0
    0.0000   -2.7930    0.0000 N   0  0  0  0  0  0  0  0  0  0  0  0
    0.8750   -3.2980    0.0000 H   0  0  0  0  0  0  0  0  0  0  0  0
    1.2080   -0.6980    0.0000 C   0  0  0  0  0  0  0  0  0  0  0  0
    2.4000   -1.3860    0.0000 O   0  0  0  0  0  0  0  0  0  0  0  0
    3.1860   -0.8350    0.0000 H   0  0  0  0  0  0  0  0  0  0  0  0
    2.3850    1.3780    0.0000 C   0  0  0  0  0  0  0  0  0  0  0  0
    3.5110    0.6090    0.1310 N   0  0  0  0  0  0  0  0  0  0  0  0
    3.4300   -0.3940    0.2200 H   0  0  0  0  0  0  0  0  0  0  0  0
    2.4350    2.5960   -0.1110 O   0  0  0  0  0  0  0  0  0  0  0  0
   -1.1780   -3.4730    0.0000 C   0  0  0  0  0  0  0  0  0  0  0  0
   -1.0960   -4.5640    0.1290 H   0  0  0  0  0  0  0  0  0  0  0  0
   -2.2570   -2.9100   -0.1330 O   0  0  0  0  0  0  0  0  0  0  0  0
    7.2550    2.3990    0.1600 C   0  0  0  0  0  0  0  0  0  0  0  0
    8.4960    2.9920    0.1710 O   0  0  0  0  0  0  0  0  0  0  0  0
    7.0000    1.3000    0.9820 C   0  0  0  0  0  0  0  0  0  0  0  0
    7.7830    0.9130    1.6300 H   0  0  0  0  0  0  0  0  0  0  0  0
    5.7420    0.6990    0.9720 C   0  0  0  0  0  0  0  0  0  0  0  0
    5.5440   -0.1570    1.6120 H   0  0  0  0  0  0  0  0  0  0  0  0
    4.7380    1.1960    0.1400 C   0  0  0  0  0  0  0  0  0  0  0  0
    4.9920    2.2940   -0.6810 C   0  0  0  0  0  0  0  0  0  0  0  0
    4.2100    2.6810   -1.3290 H   0  0  0  0  0  0  0  0  0  0  0  0
    6.2510    2.8960   -0.6710 C   0  0  0  0  0  0  0  0  0  0  0  0
    6.5650    4.2510   -1.6840 Cl  0  0  0  0  0  0  0  0  0  0  0  0
    8.9140    6.2320   -2.3880 C   0  0  0  0  0  0  0  0  0  0  0  0
    9.0870    7.5760   -3.4480 Cl  0  0  0  0  0  0  0  0  0  0  0  0
    8.4870    6.4310   -1.0750 C   0  0  0  0  0  0  0  0  0  0  0  0
    8.2640    7.4350   -0.7220 H   0  0  0  0  0  0  0  0  0  0  0  0
    8.3460    5.3420   -0.2150 C   0  0  0  0  0  0  0  0  0  0  0  0
    8.0140    5.4970    0.8080 H   0  0  0  0  0  0  0  0  0  0  0  0
    8.6330    4.0540   -0.6680 C   0  0  0  0  0  0  0  0  0  0  0  0
    9.0600    3.8550   -1.9810 C   0  0  0  0  0  0  0  0  0  0  0  0
    9.2830    2.8520   -2.3340 H   0  0  0  0  0  0  0  0  0  0  0  0
    9.2010    4.9440   -2.8410 C   0  0  0  0  0  0  0  0  0  0  0  0
    9.5330    4.7900   -3.8640 H   0  0  0  0  0  0  0  0  0  0  0  0
  1  2  1  0  0  0  0
  1 11  2  0  0  0  0
  1 14  1  0  0  0  0
  2  3  1  0  0  0  0
  2  4  2  0  0  0  0
  4  5  1  0  0  0  0
  4  6  1  0  0  0  0
  6  7  1  0  0  0  0
  6  8  2  0  0  0  0
  8  9  1  0  0  0  0
  8 11  1  0  0  0  0
  9 10  1  0  0  0  0
  9 18  1  0  0  0  0
 11 12  1  0  0  0  0
 12 13  1  0  0  0  0
 14 15  1  0  0  0  0
 14 17  2  0  0  0  0
 15 16  1  0  0  0  0
 15 27  1  0  0  0  0
 18 19  1  0  0  0  0
 18 20  2  0  0  0  0
 21 22  1  0  0  0  0
 21 23  1  0  0  0  0
 21 30  2  0  0  0  0
 22 38  1  0  0  0  0
 23 24  1  0  0  0  0
 23 25  2  0  0  0  0
 25 26  1  0  0  0  0
 25 27  1  0  0  0  0
 27 28  2  0  0  0  0
 28 29  1  0  0  0  0
 28 30  1  0  0  0  0
 30 31  1  0  0  0  0
 32 33  1  0  0  0  0
 32 34  1  0  0  0  0
 32 41  2  0  0  0  0
 34 35  1  0  0  0  0
 34 36  2  0  0  0  0
 36 37  1  0  0  0  0
 36 38  1  0  0  0  0
 38 39  2  0  0  0  0
 39 40  1  0  0  0  0
 39 41  1  0  0  0  0
 41 42  1  0  0  0  0
M  END
>  <name>
G2

>  <LOGEC50>
-0.38

>  <MolecularFormula>
C20H14N2O4Cl2

>  <ATCH1>
0.175

>  <ATCH2>
0.040800001

>  <ATCH3>
-0.0055

>  <ATCH4>
-0.097999997

>  <ATCH5>
0.00089999998

>  <ATCH6>
-0.2499

>  <ATCH7>
-0.25209999

>  <ATCH8>
0.426

>  <ATCH9>
-0.3994

>  <ATCH10>
-0.32699999

>  <DIPV_X>
-1.2508

>  <DIPV_Y>
-1.4858

>  <DIPV_Z>
0.3883

>  <DIPMOM>
1.9806

>  <ESDL1>
-7.2024002

>  <ESDL2>
-3.7462001

>  <ESDL3>
-1.6016999

>  <ESDL4>
-5.5173001

>  <ESDL5>
-4.0391002

>  <ESDL6>
-1.3249

>  <ESDL7>
-1.3459001

>  <ESDL8>
-0.50840002

>  <ESDL9>
-0.6027

>  <ESDL10>
-0.47060001

>  <NSDL1>
0.79820001

>  <NSDL2>
0.9939

>  <NSDL3>
0.91350001

>  <NSDL4>
0.87900001

>  <NSDL5>
0.82279998

>  <NSDL6>
0.94139999

>  <NSDL7>
0.31169999

>  <NSDL8>
1.6497999

>  <NSDL9>
0.51050001

>  <NSDL10>
0.84850001

>  <VDWVOL>
327.99991

>  <SURF_A>
386.58533

>  <MOFI_X>
1686.4363

>  <MOFI_Y>
21047.635

>  <MOFI_Z>
19971.365

>  <PEAX_X>
15.4115

>  <PEAX_Y>
1.9195

>  <PEAX_Z>
4.0844998

>  <MOL_WT>
417.24887

>  <S8_1DX>
11.8036

>  <S8_1DY>
9.9589996

>  <S8_1DZ>
6.2589002

>  <S8_1CX>
8.533

>  <S8_1CY>
-1.2691

>  <S8_1CZ>
-1.2271

>  <LOGP>
5.96

>  <M_PNT>
183

>  <SUM_F>
0.25

>  <SUM_R>
-0.23

$$$$
B3
  MOE2013           3D

 40 42  0  0  0  0  0  0  0  0999 V2000
    1.2080    0.6970    0.0000 C   0  0  0  0  0  0  0  0  0  0  0  0
    0.0000    1.3950    0.0000 C   0  0  0  0  0  0  0  0  0  0  0  0
    0.0000    2.4820    0.0000 H   0  0  0  0  0  0  0  0  0  0  0  0
   -1.2080    0.6980    0.0000 C   0  0  0  0  0  0  0  0  0  0  0  0
   -1.2080   -0.6980    0.0000 C   0  0  0  0  0  0  0  0  0  0  0  0
   -2.1490   -1.2410    0.0000 H   0  0  0  0  0  0  0  0  0  0  0  0
    0.0000   -1.3950    0.0000 C   0  0  0  0  0  0  0  0  0  0  0  0
    0.0000   -2.4750    0.0000 H   0  0  0  0  0  0  0  0  0  0  0  0
    1.2080   -0.6980    0.0000 C   0  0  0  0  0  0  0  0  0  0  0  0
    2.4000   -1.3860    0.0000 O   0  0  0  0  0  0  0  0  0  0  0  0
    3.1860   -0.8350    0.0000 H   0  0  0  0  0  0  0  0  0  0  0  0
    2.3850    1.3780    0.0000 C   0  0  0  0  0  0  0  0  0  0  0  0
    3.5110    0.6090    0.1310 N   0  0  0  0  0  0  0  0  0  0  0  0
    3.4300   -0.3940    0.2200 H   0  0  0  0  0  0  0  0  0  0  0  0
    2.4350    2.5960   -0.1110 O   0  0  0  0  0  0  0  0  0  0  0  0
    7.2550    2.3990    0.1600 C   0  0  0  0  0  0  0  0  0  0  0  0
    8.4960    2.9920    0.1710 O   0  0  0  0  0  0  0  0  0  0  0  0
    7.0000    1.3000    0.9820 C   0  0  0  0  0  0  0  0  0  0  0  0
    7.7830    0.9130    1.6300 H   0  0  0  0  0  0  0  0  0  0  0  0
    5.7420    0.6990    0.9720 C   0  0  0  0  0  0  0  0  0  0  0  0
    5.5440   -0.1570    1.6120 H   0  0  0  0  0  0  0  0  0  0  0  0
    4.7380    1.1960    0.1400 C   0  0  0  0  0  0  0  0  0  0  0  0
    4.9920    2.2940   -0.6810 C   0  0  0  0  0  0  0  0  0  0  0  0
    4.2100    2.6810   -1.3290 H   0  0  0  0  0  0  0  0  0  0  0  0
    6.2510    2.8960   -0.6710 C   0  0  0  0  0  0  0  0  0  0  0  0
    6.5650    4.2510   -1.6840 Cl  0  0  0  0  0  0  0  0  0  0  0  0
    8.9140    6.2320   -2.3880 C   0  0  0  0  0  0  0  0  0  0  0  0
    9.0870    7.5760   -3.4480 Cl  0  0  0  0  0  0  0  0  0  0  0  0
    8.4870    6.4310   -1.0750 C   0  0  0  0  0  0  0  0  0  0  0  0
    8.2640    7.4350   -0.7220 H   0  0  0  0  0  0  0  0  0  0  0  0
    8.3460    5.3420   -0.2150 C   0  0  0  0  0  0  0  0  0  0  0  0
    8.0140    5.4970    0.8080 H   0  0  0  0  0  0  0  0  0  0  0  0
    8.6330    4.0540   -0.6680 C   0  0  0  0  0  0  0  0  0  0  0  0
    9.0600    3.8550   -1.9810 C   0  0  0  0  0  0  0  0  0  0  0  0
    9.2830    2.8520   -2.3340 H   0  0  0  0  0  0  0  0  0  0  0  0
    9.2010    4.9440   -2.8410 C   0  0  0  0  0  0  0  0  0  0  0  0
    9.5330    4.7900   -3.8640 H   0  0  0  0  0  0  0  0  0  0  0  0
   -2.3860    1.3780    0.0000 N   0  3  0  0  0  0  0  0  0  0  0  0
   -3.3090    0.8940   -0.6630 O   0  0  0  0  0  0  0  0  0  0  0  0
   -2.4290    2.4190    0.6630 O   0  5  0  0  0  0  0  0  0  0  0  0
  1  2  1  0  0  0  0
  1  9  2  0  0  0  0
  1 12  1  0  0  0  0
  2  3  1  0  0  0  0
  2  4  2  0  0  0  0
  4  5  1  0  0  0  0
  4 38  1  0  0  0  0
  5  6  1  0  0  0  0
  5  7  2  0  0  0  0
  7  8  1  0  0  0  0
  7  9  1  0  0  0  0
  9 10  1  0  0  0  0
 10 11  1  0  0  0  0
 12 13  1  0  0  0  0
 12 15  2  0  0  0  0
 13 14  1  0  0  0  0
 13 22  1  0  0  0  0
 16 17  1  0  0  0  0
 16 18  1  0  0  0  0
 16 25  2  0  0  0  0
 17 33  1  0  0  0  0
 18 19  1  0  0  0  0
 18 20  2  0  0  0  0
 20 21  1  0  0  0  0
 20 22  1  0  0  0  0
 22 23  2  0  0  0  0
 23 24  1  0  0  0  0
 23 25  1  0  0  0  0
 25 26  1  0  0  0  0
 27 28  1  0  0  0  0
 27 29  1  0  0  0  0
 27 36  2  0  0  0  0
 29 30  1  0  0  0  0
 29 31  2  0  0  0  0
 31 32  1  0  0  0  0
 31 33  1  0  0  0  0
 33 34  2  0  0  0  0
 34 35  1  0  0  0  0
 34 36  1  0  0  0  0
 36 37  1  0  0  0  0
 38 39  2  0  0  0  0
 38 40  1  0  0  0  0
M  CHG  1  38   1
M  CHG  1  40  -1
M  END
>  <name>
B3

>  <LOGEC50>
1.4

>  <MolecularFormula>
C19H12O5N2Cl2

>  <ATCH1>
0.26089999

>  <ATCH2>
-0.1463

>  <ATCH3>
0.092299998

>  <ATCH4>
-0.16159999

>  <ATCH5>
0.1116

>  <ATCH6>
-0.2897

>  <ATCH7>
-0.2131

>  <ATCH8>
0.42739999

>  <ATCH9>
-0.3942

>  <ATCH10>
-0.3242

>  <DIPV_X>
0.1077

>  <DIPV_Y>
1.4632

>  <DIPV_Z>
0.44679999

>  <DIPMOM>
1.5337

>  <ESDL1>
-5.8407998

>  <ESDL2>
-3.5818999

>  <ESDL3>
-0.83130002

>  <ESDL4>
-2.7471001

>  <ESDL5>
-1.2534

>  <ESDL6>
-1.0283999

>  <ESDL7>
-1.1591001

>  <ESDL8>
-0.73949999

>  <ESDL9>
-0.68919998

>  <ESDL10>
-0.46880001

>  <NSDL1>
1.0031

>  <NSDL2>
1.0779999

>  <NSDL3>
1.1817

>  <NSDL4>
1.7285

>  <NSDL5>
1.0289

>  <NSDL6>
1.1907001

>  <NSDL7>
0.37029999

>  <NSDL8>
2.2704999

>  <NSDL9>
0.71439999

>  <NSDL10>
1.0592

>  <VDWVOL>
320.59991

>  <SURF_A>
379.91208

>  <MOFI_X>
2651.7319

>  <MOFI_Y>
19371.611

>  <MOFI_Z>
17267.402

>  <PEAX_X>
14.2916

>  <PEAX_Y>
1.8139

>  <PEAX_Z>
5.3462

>  <MOL_WT>
419.22134

>  <S8_1DX>
11.7737

>  <S8_1DY>
10.0132

>  <S8_1DZ>
6.2308998

>  <S8_1CX>
8.5326996

>  <S8_1CY>
-1.3552001

>  <S8_1CZ>
-1.285

>  <LOGP>
6.994

>  <M_PNT>
207

>  <SUM_F>
0.67000002

>  <SUM_R>
0.16

$$$$
G4
  MOE2013           3D

 42 44  0  0  0  0  0  0  0  0999 V2000
    1.2080    0.6970    0.0000 C   0  0  0  0  0  0  0  0  0  0  0  0
    0.0000    1.3950    0.0000 C   0  0  0  0  0  0  0  0  0  0  0  0
    0.0000    2.4820    0.0000 H   0  0  0  0  0  0  0  0  0  0  0  0
   -1.2080    0.6980    0.0000 C   0  0  0  0  0  0  0  0  0  0  0  0
   -2.7360    1.5810    0.0000 S   0  0  0  0  0  0  0  0  0  0  0  0
   -4.1080    0.4080    0.0000 C   0  0  0  0  0  0  0  0  0  0  0  0
   -5.0520    0.9530    0.0000 H   0  0  0  0  0  0  0  0  0  0  0  0
   -4.0510   -0.2190    0.8900 H   0  0  0  0  0  0  0  0  0  0  0  0
   -4.0510   -0.2190   -0.8900 H   0  0  0  0  0  0  0  0  0  0  0  0
   -1.2080   -0.6980    0.0000 C   0  0  0  0  0  0  0  0  0  0  0  0
   -2.1490   -1.2410    0.0000 H   0  0  0  0  0  0  0  0  0  0  0  0
    0.0000   -1.3950    0.0000 C   0  0  0  0  0  0  0  0  0  0  0  0
    0.0000   -2.4750    0.0000 H   0  0  0  0  0  0  0  0  0  0  0  0
    1.2080   -0.6980    0.0000 C   0  0  0  0  0  0  0  0  0  0  0  0
    2.4000   -1.3860    0.0000 O   0  0  0  0  0  0  0  0  0  0  0  0
    3.1860   -0.8350    0.0000 H   0  0  0  0  0  0  0  0  0  0  0  0
    2.3850    1.3780    0.0000 C   0  0  0  0  0  0  0  0  0  0  0  0
    3.5110    0.6090    0.1310 N   0  0  0  0  0  0  0  0  0  0  0  0
    3.4300   -0.3940    0.2200 H   0  0  0  0  0  0  0  0  0  0  0  0
    2.4350    2.5960   -0.1110 O   0  0  0  0  0  0  0  0  0  0  0  0
    7.2550    2.3990    0.1600 C   0  0  0  0  0  0  0  0  0  0  0  0
    8.4960    2.9920    0.1710 O   0  0  0  0  0  0  0  0  0  0  0  0
    7.0000    1.3000    0.9820 C   0  0  0  0  0  0  0  0  0  0  0  0
    7.7830    0.9130    1.6300 H   0  0  0  0  0  0  0  0  0  0  0  0
    5.7420    0.6990    0.9720 C   0  0  0  0  0  0  0  0  0  0  0  0
    5.5440   -0.1570    1.6120 H   0  0  0  0  0  0  0  0  0  0  0  0
    4.7380    1.1960    0.1400 C   0  0  0  0  0  0  0  0  0  0  0  0
    4.9920    2.2940   -0.6810 C   0  0  0  0  0  0  0  0  0  0  0  0
    4.2100    2.6810   -1.3290 H   0  0  0  0  0  0  0  0  0  0  0  0
    6.2510    2.8960   -0.6710 C   0  0  0  0  0  0  0  0  0  0  0  0
    6.5650    4.2510   -1.6840 Cl  0  0  0  0  0  0  0  0  0  0  0  0
    8.9140    6.2320   -2.3880 C   0  0  0  0  0  0  0  0  0  0  0  0
    9.0870    7.5760   -3.4480 Cl  0  0  0  0  0  0  0  0  0  0  0  0
    8.4870    6.4310   -1.0750 C   0  0  0  0  0  0  0  0  0  0  0  0
    8.2640    7.4350   -0.7220 H   0  0  0  0  0  0  0  0  0  0  0  0
    8.3460    5.3420   -0.2150 C   0  0  0  0  0  0  0  0  0  0  0  0
    8.0140    5.4970    0.8080 H   0  0  0  0  0  0  0  0  0  0  0  0
    8.6330    4.0540   -0.6680 C   0  0  0  0  0  0  0  0  0  0  0  0
    9.0600    3.8550   -1.9810 C   0  0  0  0  0  0  0  0  0  0  0  0
    9.2830    2.8520   -2.3340 H   0  0  0  0  0  0  0  0  0  0  0  0
    9.2010    4.9440   -2.8410 C   0  0  0  0  0  0  0  0  0  0  0  0
    9.5330    4.7900   -3.8640 H   0  0  0  0  0  0  0  0  0  0  0  0
  1  2  1  0  0  0  0
  1 14  2  0  0  0  0
  1 17  1  0  0  0  0
  2  3  1  0  0  0  0
  2  4  2  0  0  0  0
  4  5  1  0  0  0  0
  4 10  1  0  0  0  0
  5  6  1  0  0  0  0
  6  7  1  0  0  0  0
  6  8  1  0  0  0  0
  6  9  1  0  0  0  0
 10 11  1  0  0  0  0
 10 12  2  0  0  0  0
 12 13  1  0  0  0  0
 12 14  1  0  0  0  0
 14 15  1  0  0  0  0
 15 16  1  0  0  0  0
 17 18  1  0  0  0  0
 17 20  2  0  0  0  0
 18 19  1  0  0  0  0
 18 27  1  0  0  0  0
 21 22  1  0  0  0  0
 21 23  1  0  0  0  0
 21 30  2  0  0  0  0
 22 38  1  0  0  0  0
 23 24  1  0  0  0  0
 23 25  2  0  0  0  0
 25 26  1  0  0  0  0
 25 27  1  0  0  0  0
 27 28  2  0  0  0  0
 28 29  1  0  0  0  0
 28 30  1  0  0  0  0
 30 31  1  0  0  0  0
 32 33  1  0  0  0  0
 32 34  1  0  0  0  0
 32 41  2  0  0  0  0
 34 35  1  0  0  0  0
 34 36  2  0  0  0  0
 36 37  1  0  0  0  0
 36 38  1  0  0  0  0
 38 39  2  0  0  0  0
 39 40  1  0  0  0  0
 39 41  1  0  0  0  0
 41 42  1  0  0  0  0
M  END
>  <name>
G4

>  <LOGEC50>
0.31999999

>  <MolecularFormula>
C20H15SO3NCl2

>  <ATCH1>
0.2325

>  <ATCH2>
-0.1373

>  <ATCH3>
0.052499998

>  <ATCH4>
-0.25659999

>  <ATCH5>
0.075300001

>  <ATCH6>
-0.2834

>  <ATCH7>
-0.23100001

>  <ATCH8>
0.4267

>  <ATCH9>
-0.3976

>  <ATCH10>
-0.3281

>  <DIPV_X>
-3.1041999

>  <DIPV_Y>
-2.0453

>  <DIPV_Z>
-1.001

>  <DIPMOM>
3.8498001

>  <ESDL1>
-2.0706

>  <ESDL2>
-1.3477

>  <ESDL3>
-1.3785

>  <ESDL4>
-1.8399

>  <ESDL5>
-2.3638999

>  <ESDL6>
-0.99809998

>  <ESDL7>
-0.6437

>  <ESDL8>
-0.45500001

>  <ESDL9>
-0.56230003

>  <ESDL10>
-0.4129

>  <NSDL1>
0.91210002

>  <NSDL2>
0.96460003

>  <NSDL3>
0.94859999

>  <NSDL4>
1.0544

>  <NSDL5>
0.80489999

>  <NSDL6>
0.96030003

>  <NSDL7>
0.33109999

>  <NSDL8>
1.7084

>  <NSDL9>
0.53570002

>  <NSDL10>
0.8624

>  <VDWVOL>
328.7999

>  <SURF_A>
395.36938

>  <MOFI_X>
2776.7034

>  <MOFI_Y>
19569.535

>  <MOFI_Z>
17354.977

>  <PEAX_X>
14.3081

>  <PEAX_Y>
1.8358001

>  <PEAX_Z>
5.4702001

>  <MOL_WT>
420.31082

>  <S8_1DX>
11.7604

>  <S8_1DY>
10.1024

>  <S8_1DZ>
6.2213998

>  <S8_1CX>
8.5191002

>  <S8_1CY>
-1.4426

>  <S8_1CZ>
-1.0338

>  <LOGP>
7.3720002

>  <M_PNT>
143

>  <SUM_F>
0.2

>  <SUM_R>
-0.18000001

$$$$
A5
  MOE2013           3D

 43 45  0  0  1  0  0  0  0  0999 V2000
   -6.7180   -0.4970   -2.8590 C   0  0  0  0  0  0  0  0  0  0  0  0
   -5.9780    0.2470   -3.1640 H   0  0  0  0  0  0  0  0  0  0  0  0
   -7.5040   -0.0280   -2.2640 H   0  0  0  0  0  0  0  0  0  0  0  0
   -7.1600   -0.9530   -3.7480 H   0  0  0  0  0  0  0  0  0  0  0  0
   -5.9280   -1.8090   -1.8900 S   0  0  3  0  0  0  0  0  0  0  0  0
   -4.7480   -2.2950   -2.6790 O   0  0  0  0  0  0  0  0  0  0  0  0
   -5.2340   -0.7370   -0.6170 C   0  0  0  0  0  0  0  0  0  0  0  0
   -5.9330   -0.5220    0.5760 C   0  0  0  0  0  0  0  0  0  0  0  0
   -6.9090   -0.9750    0.7330 H   0  0  0  0  0  0  0  0  0  0  0  0
   -5.3720    0.2630    1.5900 C   0  0  0  0  0  0  0  0  0  0  0  0
   -5.9250    0.4070    2.5130 H   0  0  0  0  0  0  0  0  0  0  0  0
   -4.1070    0.8220    1.4120 C   0  0  0  0  0  0  0  0  0  0  0  0
   -3.5280    1.5630    2.4010 O   0  0  0  0  0  0  0  0  0  0  0  0
   -4.1930    1.7550    3.0830 H   0  0  0  0  0  0  0  0  0  0  0  0
   -3.4140    0.6160    0.2190 C   0  0  0  0  0  0  0  0  0  0  0  0
   -3.9800   -0.1530   -0.8000 C   0  0  0  0  0  0  0  0  0  0  0  0
   -3.4250   -0.3200   -1.7220 H   0  0  0  0  0  0  0  0  0  0  0  0
   -2.0500    1.1390   -0.0090 C   0  0  0  0  0  0  0  0  0  0  0  0
   -1.8240    1.7300   -1.0570 O   0  0  0  0  0  0  0  0  0  0  0  0
   -1.1500    0.7840    0.9780 N   0  0  0  0  0  0  0  0  0  0  0  0
   -1.5310    0.3020    1.7860 H   0  0  0  0  0  0  0  0  0  0  0  0
    0.2420    0.9980    0.9700 C   0  0  0  0  0  0  0  0  0  0  0  0
    0.8960    1.8020    0.0310 C   0  0  0  0  0  0  0  0  0  0  0  0
    0.3470    2.3460   -0.7310 H   0  0  0  0  0  0  0  0  0  0  0  0
    2.2850    1.9390    0.0630 C   0  0  0  0  0  0  0  0  0  0  0  0
    2.7830    2.5730   -0.6670 H   0  0  0  0  0  0  0  0  0  0  0  0
    3.0300    1.2360    1.0100 C   0  0  0  0  0  0  0  0  0  0  0  0
    4.3950    1.3860    1.0150 O   0  0  0  0  0  0  0  0  0  0  0  0
    5.1440    0.4780    0.2920 C   0  0  0  0  0  0  0  0  0  0  0  0
    4.6660   -0.3000   -0.7690 C   0  0  0  0  0  0  0  0  0  0  0  0
    3.6320   -0.2520   -1.0940 H   0  0  0  0  0  0  0  0  0  0  0  0
    5.5330   -1.1590   -1.4520 C   0  0  0  0  0  0  0  0  0  0  0  0
    5.1550   -1.7570   -2.2770 H   0  0  0  0  0  0  0  0  0  0  0  0
    6.8720   -1.2420   -1.0730 C   0  0  0  0  0  0  0  0  0  0  0  0
    7.9340   -2.3020   -1.9160 Cl  0  0  0  0  0  0  0  0  0  0  0  0
    7.3560   -0.4730   -0.0170 C   0  0  0  0  0  0  0  0  0  0  0  0
    8.3980   -0.5360    0.2820 H   0  0  0  0  0  0  0  0  0  0  0  0
    6.4900    0.3870    0.6620 C   0  0  0  0  0  0  0  0  0  0  0  0
    6.8660    0.9860    1.4870 H   0  0  0  0  0  0  0  0  0  0  0  0
    2.3850    0.4550    1.9720 C   0  0  0  0  0  0  0  0  0  0  0  0
    3.2680   -0.3870    3.1920 Cl  0  0  0  0  0  0  0  0  0  0  0  0
    0.9930    0.3390    1.9510 C   0  0  0  0  0  0  0  0  0  0  0  0
    0.5030   -0.2920    2.6890 H   0  0  0  0  0  0  0  0  0  0  0  0
  1  2  1  0  0  0  0
  1  3  1  0  0  0  0
  1  4  1  0  0  0  0
  1  5  1  0  0  0  0
  5  6  2  0  0  0  0
  5  7  1  0  0  0  0
  7  8  1  0  0  0  0
  7 16  2  0  0  0  0
  8  9  1  0  0  0  0
  8 10  2  0  0  0  0
 10 11  1  0  0  0  0
 10 12  1  0  0  0  0
 12 13  1  0  0  0  0
 12 15  2  0  0  0  0
 13 14  1  0  0  0  0
 15 16  1  0  0  0  0
 15 18  1  0  0  0  0
 16 17  1  0  0  0  0
 18 19  2  0  0  0  0
 18 20  1  0  0  0  0
 20 21  1  0  0  0  0
 20 22  1  0  0  0  0
 22 23  1  0  0  0  0
 22 42  2  0  0  0  0
 23 24  1  0  0  0  0
 23 25  2  0  0  0  0
 25 26  1  0  0  0  0
 25 27  1  0  0  0  0
 27 28  1  0  0  0  0
 27 40  2  0  0  0  0
 28 29  1  0  0  0  0
 29 30  1  0  0  0  0
 29 38  2  0  0  0  0
 30 31  1  0  0  0  0
 30 32  2  0  0  0  0
 32 33  1  0  0  0  0
 32 34  1  0  0  0  0
 34 35  1  0  0  0  0
 34 36  2  0  0  0  0
 36 37  1  0  0  0  0
 36 38  1  0  0  0  0
 38 39  1  0  0  0  0
 40 41  1  0  0  0  0
 40 42  1  0  0  0  0
 42 43  1  0  0  0  0
M  END
>  <name>
A5

>  <LOGEC50>
-0.88

>  <MolecularFormula>
C20H15O4NCl2S

>  <ATCH1>
0.2473

>  <ATCH2>
-0.14030001

>  <ATCH3>
0.0876

>  <ATCH4>
-0.46880001

>  <ATCH5>
0.1117

>  <ATCH6>
-0.28729999

>  <ATCH7>
-0.2236

>  <ATCH8>
0.42629999

>  <ATCH9>
-0.39610001

>  <ATCH10>
-0.32690001

>  <DIPV_X>
0.026699999

>  <DIPV_Y>
-2.2836001

>  <DIPV_Z>
3.6789

>  <DIPMOM>
4.3301001

>  <ESDL1>
-1.209

>  <ESDL2>
-0.8732

>  <ESDL3>
-1.1233

>  <ESDL4>
-1.0692

>  <ESDL5>
-1.528

>  <ESDL6>
-0.8362

>  <ESDL7>
-0.5079

>  <ESDL8>
-0.4483

>  <ESDL9>
-0.54860002

>  <ESDL10>
-0.37619999

>  <NSDL1>
1.1601

>  <NSDL2>
1.1509

>  <NSDL3>
1.0352

>  <NSDL4>
2.1675

>  <NSDL5>
0.9393

>  <NSDL6>
1.0662

>  <NSDL7>
0.37329999

>  <NSDL8>
1.8967

>  <NSDL9>
0.5984

>  <NSDL10>
0.93809998

>  <VDWVOL>
342.29987

>  <SURF_A>
404.42609

>  <MOFI_X>
3099.5256

>  <MOFI_Y>
21450.854

>  <MOFI_Z>
18866.434

>  <PEAX_X>
14.6589

>  <PEAX_Y>
1.7244999

>  <PEAX_Z>
5.7286

>  <MOL_WT>
436.31021

>  <S8_1DX>
11.7727

>  <S8_1DY>
10.6567

>  <S8_1DZ>
5.5288

>  <S8_1CX>
8.5384998

>  <S8_1CY>
-1.6179

>  <S8_1CZ>
-1.1429

>  <LOGP>
5.73

>  <M_PNT>
165

>  <SUM_F>
0.51999998

>  <SUM_R>
0.0099999998

$$$$
M6
  MOE2013           3D

 40 42  0  0  0  0  0  0  0  0999 V2000
    1.2080    0.6970    0.0000 C   0  0  0  0  0  0  0  0  0  0  0  0
    0.0000    1.3950    0.0000 C   0  0  0  0  0  0  0  0  0  0  0  0
    0.0000    2.4820    0.0000 H   0  0  0  0  0  0  0  0  0  0  0  0
   -1.2080    0.6980    0.0000 C   0  0  0  0  0  0  0  0  0  0  0  0
   -2.1430    1.2380    0.0000 H   0  0  0  0  0  0  0  0  0  0  0  0
   -1.2080   -0.6980    0.0000 C   0  0  0  0  0  0  0  0  0  0  0  0
   -2.1490   -1.2410    0.0000 H   0  0  0  0  0  0  0  0  0  0  0  0
    0.0000   -1.3950    0.0000 C   0  0  0  0  0  0  0  0  0  0  0  0
    1.2080   -0.6980    0.0000 C   0  0  0  0  0  0  0  0  0  0  0  0
    2.4000   -1.3860    0.0000 O   0  0  0  0  0  0  0  0  0  0  0  0
    3.1860   -0.8350    0.0000 H   0  0  0  0  0  0  0  0  0  0  0  0
    2.3850    1.3780    0.0000 C   0  0  0  0  0  0  0  0  0  0  0  0
    3.5110    0.6090    0.1310 N   0  0  0  0  0  0  0  0  0  0  0  0
    3.4300   -0.3940    0.2200 H   0  0  0  0  0  0  0  0  0  0  0  0
    2.4350    2.5960   -0.1110 O   0  0  0  0  0  0  0  0  0  0  0  0
    7.2550    2.3990    0.1600 C   0  0  0  0  0  0  0  0  0  0  0  0
    8.4960    2.9920    0.1710 O   0  0  0  0  0  0  0  0  0  0  0  0
    7.0000    1.3000    0.9820 C   0  0  0  0  0  0  0  0  0  0  0  0
    7.7830    0.9130    1.6300 H   0  0  0  0  0  0  0  0  0  0  0  0
    5.7420    0.6990    0.9720 C   0  0  0  0  0  0  0  0  0  0  0  0
    5.5440   -0.1570    1.6120 H   0  0  0  0  0  0  0  0  0  0  0  0
    4.7380    1.1960    0.1400 C   0  0  0  0  0  0  0  0  0  0  0  0
    4.9920    2.2940   -0.6810 C   0  0  0  0  0  0  0  0  0  0  0  0
    4.2100    2.6810   -1.3290 H   0  0  0  0  0  0  0  0  0  0  0  0
    6.2510    2.8960   -0.6710 C   0  0  0  0  0  0  0  0  0  0  0  0
    6.5650    4.2510   -1.6840 Cl  0  0  0  0  0  0  0  0  0  0  0  0
    8.9140    6.2320   -2.3880 C   0  0  0  0  0  0  0  0  0  0  0  0
    9.0870    7.5760   -3.4480 Cl  0  0  0  0  0  0  0  0  0  0  0  0
    8.4870    6.4310   -1.0750 C   0  0  0  0  0  0  0  0  0  0  0  0
    8.2640    7.4350   -0.7220 H   0  0  0  0  0  0  0  0  0  0  0  0
    8.3460    5.3420   -0.2150 C   0  0  0  0  0  0  0  0  0  0  0  0
    8.0140    5.4970    0.8080 H   0  0  0  0  0  0  0  0  0  0  0  0
    8.6330    4.0540   -0.6680 C   0  0  0  0  0  0  0  0  0  0  0  0
    9.0600    3.8550   -1.9810 C   0  0  0  0  0  0  0  0  0  0  0  0
    9.2830    2.8520   -2.3340 H   0  0  0  0  0  0  0  0  0  0  0  0
    9.2010    4.9440   -2.8410 C   0  0  0  0  0  0  0  0  0  0  0  0
    9.5330    4.7900   -3.8640 H   0  0  0  0  0  0  0  0  0  0  0  0
    0.0000   -2.7550    0.0000 N   0  3  0  0  0  0  0  0  0  0  0  0
    0.3410   -3.3130    1.0480 O   0  0  0  0  0  0  0  0  0  0  0  0
   -0.3410   -3.3130   -1.0480 O   0  5  0  0  0  0  0  0  0  0  0  0
  1  2  1  0  0  0  0
  1  9  2  0  0  0  0
  1 12  1  0  0  0  0
  2  3  1  0  0  0  0
  2  4  2  0  0  0  0
  4  5  1  0  0  0  0
  4  6  1  0  0  0  0
  6  7  1  0  0  0  0
  6  8  2  0  0  0  0
  8  9  1  0  0  0  0
  8 38  1  0  0  0  0
  9 10  1  0  0  0  0
 10 11  1  0  0  0  0
 12 13  1  0  0  0  0
 12 15  2  0  0  0  0
 13 14  1  0  0  0  0
 13 22  1  0  0  0  0
 16 17  1  0  0  0  0
 16 18  1  0  0  0  0
 16 25  2  0  0  0  0
 17 33  1  0  0  0  0
 18 19  1  0  0  0  0
 18 20  2  0  0  0  0
 20 21  1  0  0  0  0
 20 22  1  0  0  0  0
 22 23  2  0  0  0  0
 23 24  1  0  0  0  0
 23 25  1  0  0  0  0
 25 26  1  0  0  0  0
 27 28  1  0  0  0  0
 27 29  1  0  0  0  0
 27 36  2  0  0  0  0
 29 30  1  0  0  0  0
 29 31  2  0  0  0  0
 31 32  1  0  0  0  0
 31 33  1  0  0  0  0
 33 34  2  0  0  0  0
 34 35  1  0  0  0  0
 34 36  1  0  0  0  0
 36 37  1  0  0  0  0
 38 39  2  0  0  0  0
 38 40  1  0  0  0  0
M  CHG  1  38   1
M  CHG  1  40  -1
M  END
>  <name>
M6

>  <LOGEC50>
0.81999999

>  <MolecularFormula>
C19H12O5N2Cl2

>  <ATCH1>
0.2834

>  <ATCH2>
-0.16419999

>  <ATCH3>
0.1018

>  <ATCH4>
-0.1469

>  <ATCH5>
0.083300002

>  <ATCH6>
-0.29460001

>  <ATCH7>
-0.1885

>  <ATCH8>
0.4267

>  <ATCH9>
-0.38940001

>  <ATCH10>
-0.32480001

>  <DIPV_X>
0.38010001

>  <DIPV_Y>
-8.0740995

>  <DIPV_Z>
0.38690001

>  <DIPMOM>
8.0923004

>  <ESDL1>
-1.0867

>  <ESDL2>
-0.41460001

>  <ESDL3>
-0.79119998

>  <ESDL4>
-0.65549999

>  <ESDL5>
-0.58249998

>  <ESDL6>
-0.59549999

>  <ESDL7>
-0.495

>  <ESDL8>
-0.39109999

>  <ESDL9>
-0.5061

>  <ESDL10>
-0.32800001

>  <NSDL1>
1.1351

>  <NSDL2>
5.4842

>  <NSDL3>
3.7658

>  <NSDL4>
17.2603

>  <NSDL5>
18.237301

>  <NSDL6>
3.5904

>  <NSDL7>
0.3757

>  <NSDL8>
5.7845998

>  <NSDL9>
2.4672999

>  <NSDL10>
2.1601

>  <VDWVOL>
320.59991

>  <SURF_A>
378.27496

>  <MOFI_X>
1726.7526

>  <MOFI_Y>
20579.16

>  <MOFI_Z>
19403.096

>  <PEAX_X>
15.1625

>  <PEAX_Y>
1.8192

>  <PEAX_Z>
4.1767001

>  <MOL_WT>
419.22134

>  <S8_1DX>
11.7962

>  <S8_1DY>
9.9617996

>  <S8_1DZ>
6.2653999

>  <S8_1CX>
8.5331001

>  <S8_1CY>
-1.2725

>  <S8_1CZ>
-1.2412

>  <LOGP>
6.994

>  <M_PNT>
192

>  <SUM_F>
0.67000002

>  <SUM_R>
0.16

$$$$
B7
  MOE2013           3D

 39 41  0  0  0  0  0  0  0  0999 V2000
    1.2080    0.6970    0.0000 C   0  0  0  0  0  0  0  0  0  0  0  0
    0.0000    1.3950    0.0000 C   0  0  0  0  0  0  0  0  0  0  0  0
    0.0000    2.4820    0.0000 H   0  0  0  0  0  0  0  0  0  0  0  0
   -1.2080    0.6980    0.0000 C   0  0  0  0  0  0  0  0  0  0  0  0
   -1.2080   -0.6980    0.0000 C   0  0  0  0  0  0  0  0  0  0  0  0
   -2.1490   -1.2410    0.0000 H   0  0  0  0  0  0  0  0  0  0  0  0
    0.0000   -1.3950    0.0000 C   0  0  0  0  0  0  0  0  0  0  0  0
    0.0000   -2.4750    0.0000 H   0  0  0  0  0  0  0  0  0  0  0  0
    1.2080   -0.6980    0.0000 C   0  0  0  0  0  0  0  0  0  0  0  0
    2.4000   -1.3860    0.0000 O   0  0  0  0  0  0  0  0  0  0  0  0
    3.1860   -0.8350    0.0000 H   0  0  0  0  0  0  0  0  0  0  0  0
    2.3850    1.3780    0.0000 C   0  0  0  0  0  0  0  0  0  0  0  0
    3.5110    0.6090    0.1310 N   0  0  0  0  0  0  0  0  0  0  0  0
    3.4300   -0.3940    0.2200 H   0  0  0  0  0  0  0  0  0  0  0  0
    2.4350    2.5960   -0.1110 O   0  0  0  0  0  0  0  0  0  0  0  0
    7.2550    2.3990    0.1600 C   0  0  0  0  0  0  0  0  0  0  0  0
    8.4960    2.9920    0.1710 O   0  0  0  0  0  0  0  0  0  0  0  0
    7.0000    1.3000    0.9820 C   0  0  0  0  0  0  0  0  0  0  0  0
    7.7830    0.9130    1.6300 H   0  0  0  0  0  0  0  0  0  0  0  0
    5.7420    0.6990    0.9720 C   0  0  0  0  0  0  0  0  0  0  0  0
    5.5440   -0.1570    1.6120 H   0  0  0  0  0  0  0  0  0  0  0  0
    4.7380    1.1960    0.1400 C   0  0  0  0  0  0  0  0  0  0  0  0
    4.9920    2.2940   -0.6810 C   0  0  0  0  0  0  0  0  0  0  0  0
    4.2100    2.6810   -1.3290 H   0  0  0  0  0  0  0  0  0  0  0  0
    6.2510    2.8960   -0.6710 C   0  0  0  0  0  0  0  0  0  0  0  0
    6.5650    4.2510   -1.6840 Cl  0  0  0  0  0  0  0  0  0  0  0  0
    8.9140    6.2320   -2.3880 C   0  0  0  0  0  0  0  0  0  0  0  0
    9.0870    7.5760   -3.4480 Cl  0  0  0  0  0  0  0  0  0  0  0  0
    8.4870    6.4310   -1.0750 C   0  0  0  0  0  0  0  0  0  0  0  0
    8.2640    7.4350   -0.7220 H   0  0  0  0  0  0  0  0  0  0  0  0
    8.3460    5.3420   -0.2150 C   0  0  0  0  0  0  0  0  0  0  0  0
    8.0140    5.4970    0.8080 H   0  0  0  0  0  0  0  0  0  0  0  0
    8.6330    4.0540   -0.6680 C   0  0  0  0  0  0  0  0  0  0  0  0
    9.0600    3.8550   -1.9810 C   0  0  0  0  0  0  0  0  0  0  0  0
    9.2830    2.8520   -2.3340 H   0  0  0  0  0  0  0  0  0  0  0  0
    9.2010    4.9440   -2.8410 C   0  0  0  0  0  0  0  0  0  0  0  0
    9.5330    4.7900   -3.8640 H   0  0  0  0  0  0  0  0  0  0  0  0
   -2.3860    1.3780    0.0000 C   0  0  0  0  0  0  0  0  0  0  0  0
   -3.3900    1.9580    0.0000 N   0  0  0  0  0  0  0  0  0  0  0  0
  1  2  1  0  0  0  0
  1  9  2  0  0  0  0
  1 12  1  0  0  0  0
  2  3  1  0  0  0  0
  2  4  2  0  0  0  0
  4  5  1  0  0  0  0
  4 38  1  0  0  0  0
  5  6  1  0  0  0  0
  5  7  2  0  0  0  0
  7  8  1  0  0  0  0
  7  9  1  0  0  0  0
  9 10  1  0  0  0  0
 10 11  1  0  0  0  0
 12 13  1  0  0  0  0
 12 15  2  0  0  0  0
 13 14  1  0  0  0  0
 13 22  1  0  0  0  0
 16 17  1  0  0  0  0
 16 18  1  0  0  0  0
 16 25  2  0  0  0  0
 17 33  1  0  0  0  0
 18 19  1  0  0  0  0
 18 20  2  0  0  0  0
 20 21  1  0  0  0  0
 20 22  1  0  0  0  0
 22 23  2  0  0  0  0
 23 24  1  0  0  0  0
 23 25  1  0  0  0  0
 25 26  1  0  0  0  0
 27 28  1  0  0  0  0
 27 29  1  0  0  0  0
 27 36  2  0  0  0  0
 29 30  1  0  0  0  0
 29 31  2  0  0  0  0
 31 32  1  0  0  0  0
 31 33  1  0  0  0  0
 33 34  2  0  0  0  0
 34 35  1  0  0  0  0
 34 36  1  0  0  0  0
 36 37  1  0  0  0  0
 38 39  3  0  0  0  0
M  END
>  <name>
B7

>  <LOGEC50>
1.84

>  <MolecularFormula>
C20H12O3N2Cl2

>  <ATCH1>
0.23729999

>  <ATCH2>
-0.13689999

>  <ATCH3>
0.061900001

>  <ATCH4>
-0.075999998

>  <ATCH5>
0.073799998

>  <ATCH6>
-0.28130001

>  <ATCH7>
-0.2237

>  <ATCH8>
0.426

>  <ATCH9>
-0.39579999

>  <ATCH10>
-0.3267

>  <DIPV_X>
-1.5168999

>  <DIPV_Y>
-0.5424

>  <DIPV_Z>
0.44420001

>  <DIPMOM>
1.6711

>  <ESDL1>
-1.082

>  <ESDL2>
-0.81950003

>  <ESDL3>
-1.0338

>  <ESDL4>
-0.92860001

>  <ESDL5>
-1.3942

>  <ESDL6>
-0.77679998

>  <ESDL7>
-0.48609999

>  <ESDL8>
-0.4077

>  <ESDL9>
-0.52710003

>  <ESDL10>
-0.36489999

>  <NSDL1>
1.0388

>  <NSDL2>
1.0965

>  <NSDL3>
1.0528001

>  <NSDL4>
0.91009998

>  <NSDL5>
0.87660003

>  <NSDL6>
1.0322

>  <NSDL7>
0.3549

>  <NSDL8>
1.9231

>  <NSDL9>
0.61009997

>  <NSDL10>
0.93970001

>  <VDWVOL>
313.79993

>  <SURF_A>
373.30637

>  <MOFI_X>
2345.0713

>  <MOFI_Y>
17645.037

>  <MOFI_Z>
15850.812

>  <PEAX_X>
14.0235

>  <PEAX_Y>
1.8648

>  <PEAX_Z>
5.1118999

>  <MOL_WT>
399.23355

>  <S8_1DX>
11.7825

>  <S8_1DY>
9.9721003

>  <S8_1DZ>
6.257

>  <S8_1CX>
8.5307999

>  <S8_1CY>
-1.3163

>  <S8_1CZ>
-1.2838

>  <LOGP>
6.7550001

>  <M_PNT>
256

>  <SUM_F>
0.50999999

>  <SUM_R>
0.19

$$$$
B8
  MOE2013           3D

 43 45  0  0  0  0  0  0  0  0999 V2000
    1.2080    0.6970    0.0000 C   0  0  0  0  0  0  0  0  0  0  0  0
    0.0000    1.3950    0.0000 C   0  0  0  0  0  0  0  0  0  0  0  0
    0.0000    2.4820    0.0000 H   0  0  0  0  0  0  0  0  0  0  0  0
   -1.2080    0.6980    0.0000 C   0  0  0  0  0  0  0  0  0  0  0  0
   -1.2080   -0.6980    0.0000 C   0  0  0  0  0  0  0  0  0  0  0  0
   -2.1490   -1.2410    0.0000 H   0  0  0  0  0  0  0  0  0  0  0  0
    0.0000   -1.3950    0.0000 C   0  0  0  0  0  0  0  0  0  0  0  0
    0.0000   -2.4750    0.0000 H   0  0  0  0  0  0  0  0  0  0  0  0
    1.2080   -0.6980    0.0000 C   0  0  0  0  0  0  0  0  0  0  0  0
    2.4000   -1.3860    0.0000 O   0  0  0  0  0  0  0  0  0  0  0  0
    3.1860   -0.8350    0.0000 H   0  0  0  0  0  0  0  0  0  0  0  0
    2.3850    1.3780    0.0000 C   0  0  0  0  0  0  0  0  0  0  0  0
    3.5110    0.6090    0.1310 N   0  0  0  0  0  0  0  0  0  0  0  0
    3.4300   -0.3940    0.2200 H   0  0  0  0  0  0  0  0  0  0  0  0
    2.4350    2.5960   -0.1110 O   0  0  0  0  0  0  0  0  0  0  0  0
    7.2550    2.3990    0.1600 C   0  0  0  0  0  0  0  0  0  0  0  0
    8.4960    2.9920    0.1710 O   0  0  0  0  0  0  0  0  0  0  0  0
    7.0000    1.3000    0.9820 C   0  0  0  0  0  0  0  0  0  0  0  0
    7.7830    0.9130    1.6300 H   0  0  0  0  0  0  0  0  0  0  0  0
    5.7420    0.6990    0.9720 C   0  0  0  0  0  0  0  0  0  0  0  0
    5.5440   -0.1570    1.6120 H   0  0  0  0  0  0  0  0  0  0  0  0
    4.7380    1.1960    0.1400 C   0  0  0  0  0  0  0  0  0  0  0  0
    4.9920    2.2940   -0.6810 C   0  0  0  0  0  0  0  0  0  0  0  0
    4.2100    2.6810   -1.3290 H   0  0  0  0  0  0  0  0  0  0  0  0
    6.2510    2.8960   -0.6710 C   0  0  0  0  0  0  0  0  0  0  0  0
    6.4480    3.7460   -1.3070 H   0  0  0  0  0  0  0  0  0  0  0  0
    8.9140    6.2320   -2.3880 C   0  0  0  0  0  0  0  0  0  0  0  0
    9.0630    7.3930   -3.3040 C   0  0  0  0  0  0  0  0  0  0  0  0
    8.7300    8.5350   -2.6450 F   0  0  0  0  0  0  0  0  0  0  0  0
    8.2430    7.2320   -4.3770 F   0  0  0  0  0  0  0  0  0  0  0  0
   10.3530    7.4730   -3.7270 F   0  0  0  0  0  0  0  0  0  0  0  0
    8.4870    6.4310   -1.0750 C   0  0  0  0  0  0  0  0  0  0  0  0
    8.2640    7.4350   -0.7220 H   0  0  0  0  0  0  0  0  0  0  0  0
    8.3460    5.3420   -0.2150 C   0  0  0  0  0  0  0  0  0  0  0  0
    8.0140    5.4970    0.8080 H   0  0  0  0  0  0  0  0  0  0  0  0
    8.6330    4.0540   -0.6680 C   0  0  0  0  0  0  0  0  0  0  0  0
    9.0600    3.8550   -1.9810 C   0  0  0  0  0  0  0  0  0  0  0  0
    9.2830    2.8520   -2.3340 H   0  0  0  0  0  0  0  0  0  0  0  0
    9.2010    4.9440   -2.8410 C   0  0  0  0  0  0  0  0  0  0  0  0
    9.5330    4.7900   -3.8640 H   0  0  0  0  0  0  0  0  0  0  0  0
   -2.3860    1.3780    0.0000 N   0  3  0  0  0  0  0  0  0  0  0  0
   -3.3090    0.8950   -0.6630 O   0  0  0  0  0  0  0  0  0  0  0  0
   -2.4290    2.4190    0.6630 O   0  5  0  0  0  0  0  0  0  0  0  0
  1  2  1  0  0  0  0
  1  9  2  0  0  0  0
  1 12  1  0  0  0  0
  2  3  1  0  0  0  0
  2  4  2  0  0  0  0
  4  5  1  0  0  0  0
  4 41  1  0  0  0  0
  5  6  1  0  0  0  0
  5  7  2  0  0  0  0
  7  8  1  0  0  0  0
  7  9  1  0  0  0  0
  9 10  1  0  0  0  0
 10 11  1  0  0  0  0
 12 13  1  0  0  0  0
 12 15  2  0  0  0  0
 13 14  1  0  0  0  0
 13 22  1  0  0  0  0
 16 17  1  0  0  0  0
 16 18  1  0  0  0  0
 16 25  2  0  0  0  0
 17 36  1  0  0  0  0
 18 19  1  0  0  0  0
 18 20  2  0  0  0  0
 20 21  1  0  0  0  0
 20 22  1  0  0  0  0
 22 23  2  0  0  0  0
 23 24  1  0  0  0  0
 23 25  1  0  0  0  0
 25 26  1  0  0  0  0
 27 28  1  0  0  0  0
 27 32  1  0  0  0  0
 27 39  2  0  0  0  0
 28 29  1  0  0  0  0
 28 30  1  0  0  0  0
 28 31  1  0  0  0  0
 32 33  1  0  0  0  0
 32 34  2  0  0  0  0
 34 35  1  0  0  0  0
 34 36  1  0  0  0  0
 36 37  2  0  0  0  0
 37 38  1  0  0  0  0
 37 39  1  0  0  0  0
 39 40  1  0  0  0  0
 41 42  2  0  0  0  0
 41 43  1  0  0  0  0
M  CHG  1  41   1
M  CHG  1  43  -1
M  END
>  <name>
B8

>  <LOGEC50>
1.02

>  <MolecularFormula>
C20H13O5N2F3

>  <ATCH1>
0.26010001

>  <ATCH2>
-0.14659999

>  <ATCH3>
0.092

>  <ATCH4>
-0.1618

>  <ATCH5>
0.1112

>  <ATCH6>
-0.28940001

>  <ATCH7>
-0.2138

>  <ATCH8>
0.42750001

>  <ATCH9>
-0.39829999

>  <ATCH10>
-0.3238

>  <DIPV_X>
-0.035599999

>  <DIPV_Y>
3.7144001

>  <DIPV_Z>
1.2436

>  <DIPMOM>
3.9172001

>  <ESDL1>
-8.4443998

>  <ESDL2>
-4.9053998

>  <ESDL3>
-0.86059999

>  <ESDL4>
-3.9635

>  <ESDL5>
-1.4281

>  <ESDL6>
-1.3369

>  <ESDL7>
-1.5322

>  <ESDL8>
-0.82179999

>  <ESDL9>
-0.7378

>  <ESDL10>
-0.54040003

>  <NSDL1>
0.995

>  <NSDL2>
1.063

>  <NSDL3>
1.154

>  <NSDL4>
1.6896

>  <NSDL5>
1.0187

>  <NSDL6>
1.1572

>  <NSDL7>
0.36849999

>  <NSDL8>
2.1169

>  <NSDL9>
0.65960002

>  <NSDL10>
1.001

>  <VDWVOL>
321.59988

>  <SURF_A>
386.11441

>  <MOFI_X>
2267.2917

>  <MOFI_Y>
22328.787

>  <MOFI_Z>
20831.539

>  <PEAX_X>
15.6953

>  <PEAX_Y>
2.1538

>  <PEAX_Z>
4.7621002

>  <MOL_WT>
418.32956

>  <S8_1DX>
12.714

>  <S8_1DY>
9.8966999

>  <S8_1DZ>
7.2800002

>  <S8_1CX>
8.8228998

>  <S8_1CY>
-1.916

>  <S8_1CZ>
-1.5777

>  <LOGP>
6.6950002

>  <M_PNT>
199

>  <SUM_F>
0.67000002

>  <SUM_R>
0.16

$$$$
G9
  MOE2013           3D

 42 44  0  0  0  0  0  0  0  0999 V2000
    1.2080    0.6970    0.0000 C   0  0  0  0  0  0  0  0  0  0  0  0
    0.0000    1.3950    0.0000 C   0  0  0  0  0  0  0  0  0  0  0  0
    0.0000    2.4820    0.0000 H   0  0  0  0  0  0  0  0  0  0  0  0
   -1.2080    0.6980    0.0000 C   0  0  0  0  0  0  0  0  0  0  0  0
   -2.1430    1.2380    0.0000 H   0  0  0  0  0  0  0  0  0  0  0  0
   -1.2080   -0.6980    0.0000 C   0  0  0  0  0  0  0  0  0  0  0  0
   -2.1490   -1.2410    0.0000 H   0  0  0  0  0  0  0  0  0  0  0  0
    0.0000   -1.3950    0.0000 C   0  0  0  0  0  0  0  0  0  0  0  0
    0.0000   -3.1600    0.0000 S   0  0  0  0  0  0  0  0  0  0  0  0
   -1.7020   -3.7620    0.0000 C   0  0  0  0  0  0  0  0  0  0  0  0
   -1.7020   -4.8520    0.0000 H   0  0  0  0  0  0  0  0  0  0  0  0
   -2.2160   -3.3980   -0.8900 H   0  0  0  0  0  0  0  0  0  0  0  0
   -2.2160   -3.3980    0.8900 H   0  0  0  0  0  0  0  0  0  0  0  0
    1.2080   -0.6980    0.0000 C   0  0  0  0  0  0  0  0  0  0  0  0
    2.4000   -1.3860    0.0000 O   0  0  0  0  0  0  0  0  0  0  0  0
    3.1860   -0.8350    0.0000 H   0  0  0  0  0  0  0  0  0  0  0  0
    2.3850    1.3780    0.0000 C   0  0  0  0  0  0  0  0  0  0  0  0
    3.5110    0.6090    0.1310 N   0  0  0  0  0  0  0  0  0  0  0  0
    3.4300   -0.3940    0.2200 H   0  0  0  0  0  0  0  0  0  0  0  0
    2.4350    2.5960   -0.1110 O   0  0  0  0  0  0  0  0  0  0  0  0
    7.2550    2.3990    0.1600 C   0  0  0  0  0  0  0  0  0  0  0  0
    8.4960    2.9920    0.1710 O   0  0  0  0  0  0  0  0  0  0  0  0
    7.0000    1.3000    0.9820 C   0  0  0  0  0  0  0  0  0  0  0  0
    7.7830    0.9130    1.6300 H   0  0  0  0  0  0  0  0  0  0  0  0
    5.7420    0.6990    0.9720 C   0  0  0  0  0  0  0  0  0  0  0  0
    5.5440   -0.1570    1.6120 H   0  0  0  0  0  0  0  0  0  0  0  0
    4.7380    1.1960    0.1400 C   0  0  0  0  0  0  0  0  0  0  0  0
    4.9920    2.2940   -0.6810 C   0  0  0  0  0  0  0  0  0  0  0  0
    4.2100    2.6810   -1.3290 H   0  0  0  0  0  0  0  0  0  0  0  0
    6.2510    2.8960   -0.6710 C   0  0  0  0  0  0  0  0  0  0  0  0
    6.5650    4.2510   -1.6840 Cl  0  0  0  0  0  0  0  0  0  0  0  0
    8.9140    6.2320   -2.3880 C   0  0  0  0  0  0  0  0  0  0  0  0
    9.0870    7.5760   -3.4480 Cl  0  0  0  0  0  0  0  0  0  0  0  0
    8.4870    6.4310   -1.0750 C   0  0  0  0  0  0  0  0  0  0  0  0
    8.2640    7.4350   -0.7220 H   0  0  0  0  0  0  0  0  0  0  0  0
    8.3460    5.3420   -0.2150 C   0  0  0  0  0  0  0  0  0  0  0  0
    8.0140    5.4970    0.8080 H   0  0  0  0  0  0  0  0  0  0  0  0
    8.6330    4.0540   -0.6680 C   0  0  0  0  0  0  0  0  0  0  0  0
    9.0600    3.8550   -1.9810 C   0  0  0  0  0  0  0  0  0  0  0  0
    9.2830    2.8520   -2.3340 H   0  0  0  0  0  0  0  0  0  0  0  0
    9.2010    4.9440   -2.8410 C   0  0  0  0  0  0  0  0  0  0  0  0
    9.5330    4.7900   -3.8640 H   0  0  0  0  0  0  0  0  0  0  0  0
  1  2  1  0  0  0  0
  1 14  2  0  0  0  0
  1 17  1  0  0  0  0
  2  3  1  0  0  0  0
  2  4  2  0  0  0  0
  4  5  1  0  0  0  0
  4  6  1  0  0  0  0
  6  7  1  0  0  0  0
  6  8  2  0  0  0  0
  8  9  1  0  0  0  0
  8 14  1  0  0  0  0
  9 10  1  0  0  0  0
 10 11  1  0  0  0  0
 10 12  1  0  0  0  0
 10 13  1  0  0  0  0
 14 15  1  0  0  0  0
 15 16  1  0  0  0  0
 17 18  1  0  0  0  0
 17 20  2  0  0  0  0
 18 19  1  0  0  0  0
 18 27  1  0  0  0  0
 21 22  1  0  0  0  0
 21 23  1  0  0  0  0
 21 30  2  0  0  0  0
 22 38  1  0  0  0  0
 23 24  1  0  0  0  0
 23 25  2  0  0  0  0
 25 26  1  0  0  0  0
 25 27  1  0  0  0  0
 27 28  2  0  0  0  0
 28 29  1  0  0  0  0
 28 30  1  0  0  0  0
 30 31  1  0  0  0  0
 32 33  1  0  0  0  0
 32 34  1  0  0  0  0
 32 41  2  0  0  0  0
 34 35  1  0  0  0  0
 34 36  2  0  0  0  0
 36 37  1  0  0  0  0
 36 38  1  0  0  0  0
 38 39  2  0  0  0  0
 39 40  1  0  0  0  0
 39 41  1  0  0  0  0
 41 42  1  0  0  0  0
M  END
>  <name>
G9

>  <LOGEC50>
0.41999999

>  <MolecularFormula>
C20H15SO3NCl2

>  <ATCH1>
0.2323

>  <ATCH2>
-0.2545

>  <ATCH3>
0.064999998

>  <ATCH4>
-0.13079999

>  <ATCH5>
0.040100001

>  <ATCH6>
-0.27509999

>  <ATCH7>
-0.23190001

>  <ATCH8>
0.42570001

>  <ATCH9>
-0.39809999

>  <ATCH10>
-0.32789999

>  <DIPV_X>
-2.3652

>  <DIPV_Y>
-3.7578001

>  <DIPV_Z>
-0.82169998

>  <DIPMOM>
4.5155001

>  <ESDL1>
-5.2785001

>  <ESDL2>
-2.0048001

>  <ESDL3>
-1.6241

>  <ESDL4>
-3.5297

>  <ESDL5>
-2.5197001

>  <ESDL6>
-1.1995

>  <ESDL7>
-1.1224

>  <ESDL8>
-0.4962

>  <ESDL9>
-0.59240001

>  <ESDL10>
-0.4499

>  <NSDL1>
0.81660002

>  <NSDL2>
1.0563999

>  <NSDL3>
0.95359999

>  <NSDL4>
0.89349997

>  <NSDL5>
0.83890003

>  <NSDL6>
0.9515

>  <NSDL7>
0.31779999

>  <NSDL8>
1.6883

>  <NSDL9>
0.52689999

>  <NSDL10>
0.86129999

>  <VDWVOL>
328.7999

>  <SURF_A>
396.11472

>  <MOFI_X>
1822.8052

>  <MOFI_Y>
20390.836

>  <MOFI_Z>
19440.973

>  <PEAX_X>
15.0954

>  <PEAX_Y>
2.2876999

>  <PEAX_Z>
4.0770998

>  <MOL_WT>
420.31082

>  <S8_1DX>
11.7836

>  <S8_1DY>
9.9952002

>  <S8_1DZ>
6.2577

>  <S8_1CX>
8.5281

>  <S8_1CY>
-1.3386

>  <S8_1CZ>
-1.2163

>  <LOGP>
7.3720002

>  <M_PNT>
151

>  <SUM_F>
0.2

>  <SUM_R>
-0.18000001

$$$$
A10
  MOE2013           3D

 44 46  0  0  0  0  0  0  0  0999 V2000
    1.2080    0.6970    0.0000 C   0  0  0  0  0  0  0  0  0  0  0  0
    0.0000    1.3950    0.0000 C   0  0  0  0  0  0  0  0  0  0  0  0
    0.0000    2.4820    0.0000 H   0  0  0  0  0  0  0  0  0  0  0  0
   -1.2080    0.6980    0.0000 C   0  0  0  0  0  0  0  0  0  0  0  0
   -1.2080   -0.6980    0.0000 C   0  0  0  0  0  0  0  0  0  0  0  0
   -2.1490   -1.2410    0.0000 H   0  0  0  0  0  0  0  0  0  0  0  0
    0.0000   -1.3950    0.0000 C   0  0  0  0  0  0  0  0  0  0  0  0
    0.0000   -2.4750    0.0000 H   0  0  0  0  0  0  0  0  0  0  0  0
    1.2080   -0.6980    0.0000 C   0  0  0  0  0  0  0  0  0  0  0  0
    2.4000   -1.3860    0.0000 O   0  0  0  0  0  0  0  0  0  0  0  0
    3.1860   -0.8350    0.0000 H   0  0  0  0  0  0  0  0  0  0  0  0
    2.3850    1.3780    0.0000 C   0  0  0  0  0  0  0  0  0  0  0  0
    3.5110    0.6090    0.1310 N   0  0  0  0  0  0  0  0  0  0  0  0
    3.4300   -0.3940    0.2200 H   0  0  0  0  0  0  0  0  0  0  0  0
    2.4350    2.5960   -0.1110 O   0  0  0  0  0  0  0  0  0  0  0  0
    7.2550    2.3990    0.1600 C   0  0  0  0  0  0  0  0  0  0  0  0
    8.4960    2.9920    0.1710 O   0  0  0  0  0  0  0  0  0  0  0  0
    7.0000    1.3000    0.9820 C   0  0  0  0  0  0  0  0  0  0  0  0
    7.7830    0.9130    1.6300 H   0  0  0  0  0  0  0  0  0  0  0  0
    5.7420    0.6990    0.9720 C   0  0  0  0  0  0  0  0  0  0  0  0
    5.5440   -0.1570    1.6120 H   0  0  0  0  0  0  0  0  0  0  0  0
    4.7380    1.1960    0.1400 C   0  0  0  0  0  0  0  0  0  0  0  0
    4.9920    2.2940   -0.6810 C   0  0  0  0  0  0  0  0  0  0  0  0
    4.2100    2.6810   -1.3290 H   0  0  0  0  0  0  0  0  0  0  0  0
    6.2510    2.8960   -0.6710 C   0  0  0  0  0  0  0  0  0  0  0  0
    6.5650    4.2510   -1.6840 Cl  0  0  0  0  0  0  0  0  0  0  0  0
    8.9140    6.2320   -2.3880 C   0  0  0  0  0  0  0  0  0  0  0  0
    9.0870    7.5760   -3.4480 Cl  0  0  0  0  0  0  0  0  0  0  0  0
    8.4870    6.4310   -1.0750 C   0  0  0  0  0  0  0  0  0  0  0  0
    8.2640    7.4350   -0.7220 H   0  0  0  0  0  0  0  0  0  0  0  0
    8.3460    5.3420   -0.2150 C   0  0  0  0  0  0  0  0  0  0  0  0
    8.0140    5.4970    0.8080 H   0  0  0  0  0  0  0  0  0  0  0  0
    8.6330    4.0540   -0.6680 C   0  0  0  0  0  0  0  0  0  0  0  0
    9.0600    3.8550   -1.9810 C   0  0  0  0  0  0  0  0  0  0  0  0
    9.2830    2.8520   -2.3340 H   0  0  0  0  0  0  0  0  0  0  0  0
    9.2010    4.9440   -2.8410 C   0  0  0  0  0  0  0  0  0  0  0  0
    9.5330    4.7900   -3.8640 H   0  0  0  0  0  0  0  0  0  0  0  0
   -2.6800    1.5480    0.0000 S   0  0  0  0  0  0  0  0  0  0  0  0
   -3.9600    0.3230    0.0000 C   0  0  0  0  0  0  0  0  0  0  0  0
   -3.9230   -0.2410    0.9320 H   0  0  0  0  0  0  0  0  0  0  0  0
   -3.8140   -0.3550   -0.8410 H   0  0  0  0  0  0  0  0  0  0  0  0
   -4.9300    0.8110   -0.0910 H   0  0  0  0  0  0  0  0  0  0  0  0
   -2.7670    2.2720    1.2550 O   0  0  0  0  0  0  0  0  0  0  0  0
   -2.7670    2.2720   -1.2550 O   0  0  0  0  0  0  0  0  0  0  0  0
  1  2  1  0  0  0  0
  1  9  2  0  0  0  0
  1 12  1  0  0  0  0
  2  3  1  0  0  0  0
  2  4  2  0  0  0  0
  4  5  1  0  0  0  0
  4 38  1  0  0  0  0
  5  6  1  0  0  0  0
  5  7  2  0  0  0  0
  7  8  1  0  0  0  0
  7  9  1  0  0  0  0
  9 10  1  0  0  0  0
 10 11  1  0  0  0  0
 12 13  1  0  0  0  0
 12 15  2  0  0  0  0
 13 14  1  0  0  0  0
 13 22  1  0  0  0  0
 16 17  1  0  0  0  0
 16 18  1  0  0  0  0
 16 25  2  0  0  0  0
 17 33  1  0  0  0  0
 18 19  1  0  0  0  0
 18 20  2  0  0  0  0
 20 21  1  0  0  0  0
 20 22  1  0  0  0  0
 22 23  2  0  0  0  0
 23 24  1  0  0  0  0
 23 25  1  0  0  0  0
 25 26  1  0  0  0  0
 27 28  1  0  0  0  0
 27 29  1  0  0  0  0
 27 36  2  0  0  0  0
 29 30  1  0  0  0  0
 29 31  2  0  0  0  0
 31 32  1  0  0  0  0
 31 33  1  0  0  0  0
 33 34  2  0  0  0  0
 34 35  1  0  0  0  0
 34 36  1  0  0  0  0
 36 37  1  0  0  0  0
 38 39  1  0  0  0  0
 38 43  2  0  0  0  0
 38 44  2  0  0  0  0
 39 40  1  0  0  0  0
 39 41  1  0  0  0  0
 39 42  1  0  0  0  0
M  END
>  <name>
A10

>  <LOGEC50>
0

>  <MolecularFormula>
C20H15O5NCl2S

>  <ATCH1>
0.26210001

>  <ATCH2>
-0.1435

>  <ATCH3>
0.1007

>  <ATCH4>
-0.51459998

>  <ATCH5>
0.1454

>  <ATCH6>
-0.2904

>  <ATCH7>
-0.21699999

>  <ATCH8>
0.42719999

>  <ATCH9>
-0.3976

>  <ATCH10>
-0.32429999

>  <DIPV_X>
-3.164

>  <DIPV_Y>
1.5843

>  <DIPV_Z>
-2.7014

>  <DIPMOM>
4.4517999

>  <ESDL1>
-0.86669999

>  <ESDL2>
-0.76239997

>  <ESDL3>
-0.9508

>  <ESDL4>
-1.0341001

>  <ESDL5>
-1.2133

>  <ESDL6>
-0.70520002

>  <ESDL7>
-0.44960001

>  <ESDL8>
-0.55180001

>  <ESDL9>
-0.5905

>  <ESDL10>
-0.34729999

>  <NSDL1>
1.1427

>  <NSDL2>
1.2053

>  <NSDL3>
1.1734999

>  <NSDL4>
1.1778001

>  <NSDL5>
0.94690001

>  <NSDL6>
1.098

>  <NSDL7>
0.3793

>  <NSDL8>
2.0455999

>  <NSDL9>
0.65420002

>  <NSDL10>
0.96850002

>  <VDWVOL>
353.59985

>  <SURF_A>
413.67645

>  <MOFI_X>
3400.438

>  <MOFI_Y>
22357.971

>  <MOFI_Z>
19442.146

>  <PEAX_X>
14.6221

>  <PEAX_Y>
1.6426001

>  <PEAX_Z>
5.9303002

>  <MOL_WT>
452.3096

>  <S8_1DX>
11.7258

>  <S8_1DY>
10.6374

>  <S8_1DZ>
5.6009002

>  <S8_1CX>
8.5063

>  <S8_1CY>
-1.6703

>  <S8_1CZ>
-1.4219

>  <LOGP>
5.6700001

>  <M_PNT>
195

>  <SUM_F>
0.54000002

>  <SUM_R>
0.22

$$$$
C11
  MOE2013           3D

 40 42  0  0  0  0  0  0  0  0999 V2000
    1.2080    0.6970    0.0000 C   0  0  0  0  0  0  0  0  0  0  0  0
    0.0000    1.3950    0.0000 C   0  0  0  0  0  0  0  0  0  0  0  0
    0.0000    2.4820    0.0000 H   0  0  0  0  0  0  0  0  0  0  0  0
   -1.2080    0.6980    0.0000 C   0  0  0  0  0  0  0  0  0  0  0  0
   -1.2080   -0.6980    0.0000 C   0  0  0  0  0  0  0  0  0  0  0  0
   -2.1490   -1.2410    0.0000 H   0  0  0  0  0  0  0  0  0  0  0  0
    0.0000   -1.3950    0.0000 C   0  0  0  0  0  0  0  0  0  0  0  0
    0.0000   -2.4750    0.0000 H   0  0  0  0  0  0  0  0  0  0  0  0
    1.2080   -0.6980    0.0000 C   0  0  0  0  0  0  0  0  0  0  0  0
    2.4000   -1.3860    0.0000 O   0  0  0  0  0  0  0  0  0  0  0  0
    3.1860   -0.8350    0.0000 H   0  0  0  0  0  0  0  0  0  0  0  0
    2.3850    1.3780    0.0000 C   0  0  0  0  0  0  0  0  0  0  0  0
    3.5110    0.6090    0.1310 N   0  0  0  0  0  0  0  0  0  0  0  0
    3.4300   -0.3940    0.2200 H   0  0  0  0  0  0  0  0  0  0  0  0
    2.4350    2.5960   -0.1110 O   0  0  0  0  0  0  0  0  0  0  0  0
    7.2550    2.3990    0.1600 C   0  0  0  0  0  0  0  0  0  0  0  0
    8.4960    2.9920    0.1710 O   0  0  0  0  0  0  0  0  0  0  0  0
    7.0000    1.3000    0.9820 C   0  0  0  0  0  0  0  0  0  0  0  0
    7.7830    0.9130    1.6300 H   0  0  0  0  0  0  0  0  0  0  0  0
    5.7420    0.6990    0.9720 C   0  0  0  0  0  0  0  0  0  0  0  0
    5.5440   -0.1570    1.6120 H   0  0  0  0  0  0  0  0  0  0  0  0
    4.7380    1.1960    0.1400 C   0  0  0  0  0  0  0  0  0  0  0  0
    4.9920    2.2940   -0.6810 C   0  0  0  0  0  0  0  0  0  0  0  0
    4.2100    2.6810   -1.3290 H   0  0  0  0  0  0  0  0  0  0  0  0
    6.2510    2.8960   -0.6710 C   0  0  0  0  0  0  0  0  0  0  0  0
    6.4480    3.7460   -1.3070 H   0  0  0  0  0  0  0  0  0  0  0  0
    8.9140    6.2320   -2.3880 C   0  0  0  0  0  0  0  0  0  0  0  0
    9.0230    7.0750   -3.0540 H   0  0  0  0  0  0  0  0  0  0  0  0
    8.4870    6.4310   -1.0750 C   0  0  0  0  0  0  0  0  0  0  0  0
    8.2640    7.4350   -0.7220 H   0  0  0  0  0  0  0  0  0  0  0  0
    8.3460    5.3420   -0.2150 C   0  0  0  0  0  0  0  0  0  0  0  0
    8.0140    5.4970    0.8080 H   0  0  0  0  0  0  0  0  0  0  0  0
    8.6330    4.0540   -0.6680 C   0  0  0  0  0  0  0  0  0  0  0  0
    9.0600    3.8550   -1.9810 C   0  0  0  0  0  0  0  0  0  0  0  0
    9.2830    2.8520   -2.3340 H   0  0  0  0  0  0  0  0  0  0  0  0
    9.2010    4.9440   -2.8410 C   0  0  0  0  0  0  0  0  0  0  0  0
    9.5330    4.7900   -3.8640 H   0  0  0  0  0  0  0  0  0  0  0  0
   -2.3860    1.3780    0.0000 N   0  3  0  0  0  0  0  0  0  0  0  0
   -3.3090    0.8950   -0.6630 O   0  0  0  0  0  0  0  0  0  0  0  0
   -2.4290    2.4190    0.6630 O   0  5  0  0  0  0  0  0  0  0  0  0
  1  2  1  0  0  0  0
  1  9  2  0  0  0  0
  1 12  1  0  0  0  0
  2  3  1  0  0  0  0
  2  4  2  0  0  0  0
  4  5  1  0  0  0  0
  4 38  1  0  0  0  0
  5  6  1  0  0  0  0
  5  7  2  0  0  0  0
  7  8  1  0  0  0  0
  7  9  1  0  0  0  0
  9 10  1  0  0  0  0
 10 11  1  0  0  0  0
 12 13  1  0  0  0  0
 12 15  2  0  0  0  0
 13 14  1  0  0  0  0
 13 22  1  0  0  0  0
 16 17  1  0  0  0  0
 16 18  1  0  0  0  0
 16 25  2  0  0  0  0
 17 33  1  0  0  0  0
 18 19  1  0  0  0  0
 18 20  2  0  0  0  0
 20 21  1  0  0  0  0
 20 22  1  0  0  0  0
 22 23  2  0  0  0  0
 23 24  1  0  0  0  0
 23 25  1  0  0  0  0
 25 26  1  0  0  0  0
 27 28  1  0  0  0  0
 27 29  1  0  0  0  0
 27 36  2  0  0  0  0
 29 30  1  0  0  0  0
 29 31  2  0  0  0  0
 31 32  1  0  0  0  0
 31 33  1  0  0  0  0
 33 34  2  0  0  0  0
 34 35  1  0  0  0  0
 34 36  1  0  0  0  0
 36 37  1  0  0  0  0
 38 39  2  0  0  0  0
 38 40  1  0  0  0  0
M  CHG  1  38   1
M  CHG  1  40  -1
M  END
>  <name>
C11

>  <LOGEC50>
0.1

>  <MolecularFormula>
C19H14O5N2

>  <ATCH1>
0.25929999

>  <ATCH2>
-0.1462

>  <ATCH3>
0.091600001

>  <ATCH4>
-0.1611

>  <ATCH5>
0.1105

>  <ATCH6>
-0.28819999

>  <ATCH7>
-0.21250001

>  <ATCH8>
0.4262

>  <ATCH9>
-0.3924

>  <ATCH10>
-0.32679999

>  <DIPV_X>
1.1464

>  <DIPV_Y>
0.068700001

>  <DIPV_Z>
0.76620001

>  <DIPMOM>
1.3806

>  <ESDL1>
-18.5242

>  <ESDL2>
-10.2312

>  <ESDL3>
-0.93889999

>  <ESDL4>
-8.6128998

>  <ESDL5>
-2.131

>  <ESDL6>
-2.3426001

>  <ESDL7>
-2.9728

>  <ESDL8>
-1.2358

>  <ESDL9>
-0.97820002

>  <ESDL10>
-0.7942

>  <NSDL1>
0.99089998

>  <NSDL2>
1.0505

>  <NSDL3>
1.1364

>  <NSDL4>
1.6641999

>  <NSDL5>
1.0084

>  <NSDL6>
1.138

>  <NSDL7>
0.36809999

>  <NSDL8>
2.0422001

>  <NSDL9>
0.64459997

>  <NSDL10>
0.9576

>  <VDWVOL>
304.79996

>  <SURF_A>
355.80188

>  <MOFI_X>
1894.8627

>  <MOFI_Y>
15368.854

>  <MOFI_Z>
13607.306

>  <PEAX_X>
13.6757

>  <PEAX_Y>
0.95950001

>  <PEAX_Z>
5.0251002

>  <MOL_WT>
362.34225

>  <S8_1DX>
11.7909

>  <S8_1DY>
9.5562

>  <S8_1DZ>
4.8334999

>  <S8_1CX>
8.5199003

>  <S8_1CY>
-2.0179

>  <S8_1CZ>
1.2512

>  <LOGP>
4.888

>  <M_PNT>
212

>  <SUM_F>
0.67000002

>  <SUM_R>
-0.23

$$$$
C12
  MOE2013           3D

 41 43  0  0  0  0  0  0  0  0999 V2000
    1.2100    0.8260   -0.4510 C   0  0  0  0  0  0  0  0  0  0  0  0
   -0.0930    1.3530   -0.4280 C   0  0  0  0  0  0  0  0  0  0  0  0
   -0.2370    2.4300   -0.3520 H   0  0  0  0  0  0  0  0  0  0  0  0
   -1.1970    0.4930   -0.5030 C   0  0  0  0  0  0  0  0  0  0  0  0
   -1.0200   -0.8920   -0.6000 C   0  0  0  0  0  0  0  0  0  0  0  0
   -1.8680   -1.5710   -0.6590 H   0  0  0  0  0  0  0  0  0  0  0  0
    0.2720   -1.4210   -0.6230 C   0  0  0  0  0  0  0  0  0  0  0  0
    0.3940   -2.4980   -0.7000 H   0  0  0  0  0  0  0  0  0  0  0  0
    1.3770   -0.5670   -0.5490 C   0  0  0  0  0  0  0  0  0  0  0  0
    2.6390   -1.1080   -0.5740 O   0  0  0  0  0  0  0  0  0  0  0  0
    2.5670   -2.0800   -0.6160 H   0  0  0  0  0  0  0  0  0  0  0  0
    2.3530    1.7980   -0.3660 C   0  0  0  0  0  0  0  0  0  0  0  0
    3.6140    1.2380   -0.4130 N   0  0  0  0  0  0  0  0  0  0  0  0
    3.6300    0.2190   -0.5130 H   0  0  0  0  0  0  0  0  0  0  0  0
    2.0990    2.9940   -0.2670 O   0  0  0  0  0  0  0  0  0  0  0  0
    7.4250    3.0210   -0.2150 C   0  0  0  0  0  0  0  0  0  0  0  0
    7.2790    1.6410   -0.3770 C   0  0  0  0  0  0  0  0  0  0  0  0
    8.1540    0.9980   -0.4480 H   0  0  0  0  0  0  0  0  0  0  0  0
    6.0020    1.0800   -0.4430 C   0  0  0  0  0  0  0  0  0  0  0  0
    5.9110    0.0040   -0.5720 H   0  0  0  0  0  0  0  0  0  0  0  0
    4.8620    1.8870   -0.3410 C   0  0  0  0  0  0  0  0  0  0  0  0
    5.0170    3.2640   -0.1590 C   0  0  0  0  0  0  0  0  0  0  0  0
    4.1520    3.9130   -0.0550 H   0  0  0  0  0  0  0  0  0  0  0  0
    6.2940    3.8330   -0.0860 C   0  0  0  0  0  0  0  0  0  0  0  0
    6.4030    5.5310    0.2140 Cl  0  0  0  0  0  0  0  0  0  0  0  0
   -2.5540    1.0480   -0.4800 N   0  3  0  0  0  0  0  0  0  0  0  0
   -3.5020    0.2540   -0.5490 O   0  0  0  0  0  0  0  0  0  0  0  0
   -2.6720    2.2780   -0.3940 O   0  5  0  0  0  0  0  0  0  0  0  0
   10.3650    6.4020   -2.9110 C   0  0  0  0  0  0  0  0  0  0  0  0
   11.0040    7.5590   -4.0140 Cl  0  0  0  0  0  0  0  0  0  0  0  0
   10.9670    6.2260   -1.6670 C   0  0  0  0  0  0  0  0  0  0  0  0
   11.8390    6.8110   -1.3850 H   0  0  0  0  0  0  0  0  0  0  0  0
   10.4450    5.2890   -0.7730 C   0  0  0  0  0  0  0  0  0  0  0  0
   10.9190    5.1560    0.1980 H   0  0  0  0  0  0  0  0  0  0  0  0
    9.3170    4.5330   -1.1210 C   0  0  0  0  0  0  0  0  0  0  0  0
    8.8020    3.5440   -0.1370 C   0  0  0  0  0  0  0  0  0  0  0  0
    8.7270    4.7060   -2.3800 C   0  0  0  0  0  0  0  0  0  0  0  0
    7.8670    4.1190   -2.6910 H   0  0  0  0  0  0  0  0  0  0  0  0
    9.2500    5.6450   -3.2720 C   0  0  0  0  0  0  0  0  0  0  0  0
    8.7870    5.7790   -4.2470 H   0  0  0  0  0  0  0  0  0  0  0  0
    9.5310    3.1110    0.7510 O   0  0  0  0  0  0  0  0  0  0  0  0
  1  2  1  0  0  0  0
  1  9  2  0  0  0  0
  1 12  1  0  0  0  0
  2  3  1  0  0  0  0
  2  4  2  0  0  0  0
  4  5  1  0  0  0  0
  4 26  1  0  0  0  0
  5  6  1  0  0  0  0
  5  7  2  0  0  0  0
  7  8  1  0  0  0  0
  7  9  1  0  0  0  0
  9 10  1  0  0  0  0
 10 11  1  0  0  0  0
 12 13  1  0  0  0  0
 12 15  2  0  0  0  0
 13 14  1  0  0  0  0
 13 21  1  0  0  0  0
 16 17  1  0  0  0  0
 16 24  2  0  0  0  0
 16 36  1  0  0  0  0
 17 18  1  0  0  0  0
 17 19  2  0  0  0  0
 19 20  1  0  0  0  0
 19 21  1  0  0  0  0
 21 22  2  0  0  0  0
 22 23  1  0  0  0  0
 22 24  1  0  0  0  0
 24 25  1  0  0  0  0
 26 27  2  0  0  0  0
 26 28  1  0  0  0  0
 29 30  1  0  0  0  0
 29 31  1  0  0  0  0
 29 39  2  0  0  0  0
 31 32  1  0  0  0  0
 31 33  2  0  0  0  0
 33 34  1  0  0  0  0
 33 35  1  0  0  0  0
 35 36  1  0  0  0  0
 35 37  2  0  0  0  0
 36 41  2  0  0  0  0
 37 38  1  0  0  0  0
 37 39  1  0  0  0  0
 39 40  1  0  0  0  0
M  CHG  1  26   1
M  CHG  1  28  -1
M  END
>  <name>
C12

>  <LOGEC50>
1.13

>  <MolecularFormula>
C20H14O5N2Cl2

>  <ATCH1>
0.26050001

>  <ATCH2>
-0.1453

>  <ATCH3>
0.092500001

>  <ATCH4>
-0.1603

>  <ATCH5>
0.1104

>  <ATCH6>
-0.29010001

>  <ATCH7>
-0.2105

>  <ATCH8>
0.42680001

>  <ATCH9>
-0.38769999

>  <ATCH10>
-0.3272

>  <DIPV_X>
-0.73229998

>  <DIPV_Y>
0.7748

>  <DIPV_Z>
0.25099999

>  <DIPMOM>
1.0951999

>  <ESDL1>
-3.6273

>  <ESDL2>
-2.4015

>  <ESDL3>
-0.78320003

>  <ESDL4>
-1.7172

>  <ESDL5>
-1.0703

>  <ESDL6>
-0.78930002

>  <ESDL7>
-0.83499998

>  <ESDL8>
-0.59189999

>  <ESDL9>
-0.61210001

>  <ESDL10>
-0.4057

>  <NSDL1>
1.0216

>  <NSDL2>
1.1065

>  <NSDL3>
1.2309999

>  <NSDL4>
1.8079

>  <NSDL5>
1.0506999

>  <NSDL6>
1.2366

>  <NSDL7>
0.37720001

>  <NSDL8>
2.4834001

>  <NSDL9>
0.801

>  <NSDL10>
1.1052999

>  <VDWVOL>
333.79993

>  <SURF_A>
385.53317

>  <MOFI_X>
3188.1543

>  <MOFI_Y>
20791.547

>  <MOFI_Z>
17782.863

>  <PEAX_X>
14.3769

>  <PEAX_Y>
1.0239

>  <PEAX_Z>
6.0163999

>  <MOL_WT>
431.23227

>  <S8_1DX>
11.8248

>  <S8_1DY>
11.6162

>  <S8_1DZ>
4.7136002

>  <S8_1CX>
8.5351

>  <S8_1CY>
-2.2636001

>  <S8_1CZ>
1.2017

>  <LOGP>
6.2049999

>  <M_PNT>
246

>  <SUM_F>
0.67000002

>  <SUM_R>
-0.23

$$$$
B13
  MOE2013           3D

 42 44  0  0  0  0  0  0  0  0999 V2000
    1.2080    0.6970    0.0000 C   0  0  0  0  0  0  0  0  0  0  0  0
    0.0000    1.3950    0.0000 C   0  0  0  0  0  0  0  0  0  0  0  0
    0.0000    2.4820    0.0000 H   0  0  0  0  0  0  0  0  0  0  0  0
   -1.2080    0.6980    0.0000 C   0  0  0  0  0  0  0  0  0  0  0  0
   -1.2080   -0.6980    0.0000 C   0  0  0  0  0  0  0  0  0  0  0  0
    8.4870    6.4310   -1.0750 C   0  0  0  0  0  0  0  0  0  0  0  0
   -2.1490   -1.2410    0.0000 H   0  0  0  0  0  0  0  0  0  0  0  0
    8.2640    7.4350   -0.7220 H   0  0  0  0  0  0  0  0  0  0  0  0
    0.0000   -1.3950    0.0000 C   0  0  0  0  0  0  0  0  0  0  0  0
    8.4960    2.9920    0.1710 O   0  0  0  0  0  0  0  0  0  0  0  0
    0.0000   -2.4750    0.0000 H   0  0  0  0  0  0  0  0  0  0  0  0
    9.0600    3.8550   -1.9810 C   0  0  0  0  0  0  0  0  0  0  0  0
    1.2080   -0.6980    0.0000 C   0  0  0  0  0  0  0  0  0  0  0  0
    9.2830    2.8520   -2.3340 H   0  0  0  0  0  0  0  0  0  0  0  0
    2.4000   -1.3860    0.0000 O   0  0  0  0  0  0  0  0  0  0  0  0
    8.3460    5.3420   -0.2150 C   0  0  0  0  0  0  0  0  0  0  0  0
    3.1860   -0.8350    0.0000 H   0  0  0  0  0  0  0  0  0  0  0  0
    9.2010    4.9440   -2.8410 C   0  0  0  0  0  0  0  0  0  0  0  0
    2.3850    1.3780    0.0000 C   0  0  0  0  0  0  0  0  0  0  0  0
    9.5330    4.7900   -3.8640 H   0  0  0  0  0  0  0  0  0  0  0  0
    3.5110    0.6090    0.1310 N   0  0  0  0  0  0  0  0  0  0  0  0
    7.8200    5.5870    1.4050 Cl  0  0  0  0  0  0  0  0  0  0  0  0
    3.4300   -0.3940    0.2200 H   0  0  0  0  0  0  0  0  0  0  0  0
    8.6330    4.0540   -0.6680 C   0  0  0  0  0  0  0  0  0  0  0  0
    2.4350    2.5960   -0.1110 O   0  0  0  0  0  0  0  0  0  0  0  0
    8.9140    6.2320   -2.3880 C   0  0  0  0  0  0  0  0  0  0  0  0
    7.2550    2.3990    0.1600 C   0  0  0  0  0  0  0  0  0  0  0  0
    7.0000    1.3000    0.9820 C   0  0  0  0  0  0  0  0  0  0  0  0
    7.7830    0.9130    1.6300 H   0  0  0  0  0  0  0  0  0  0  0  0
    5.7420    0.6990    0.9720 C   0  0  0  0  0  0  0  0  0  0  0  0
    5.5440   -0.1570    1.6120 H   0  0  0  0  0  0  0  0  0  0  0  0
    4.7380    1.1960    0.1400 C   0  0  0  0  0  0  0  0  0  0  0  0
    4.9920    2.2940   -0.6810 C   0  0  0  0  0  0  0  0  0  0  0  0
    4.2100    2.6810   -1.3290 H   0  0  0  0  0  0  0  0  0  0  0  0
    6.2510    2.8960   -0.6710 C   0  0  0  0  0  0  0  0  0  0  0  0
    6.4480    3.7460   -1.3070 H   0  0  0  0  0  0  0  0  0  0  0  0
   -2.3860    1.3780    0.0000 N   0  3  0  0  0  0  0  0  0  0  0  0
   -3.3090    0.8950   -0.6630 O   0  0  0  0  0  0  0  0  0  0  0  0
   -2.4290    2.4190    0.6630 O   0  5  0  0  0  0  0  0  0  0  0  0
    9.0510    7.2940   -3.2270 N   0  3  0  0  0  0  0  0  0  0  0  0
    9.9890    7.2540   -4.0290 O   0  0  0  0  0  0  0  0  0  0  0  0
    8.2250    8.2050   -3.1130 O   0  5  0  0  0  0  0  0  0  0  0  0
  1  2  1  0  0  0  0
  1 13  2  0  0  0  0
  1 19  1  0  0  0  0
  2  3  1  0  0  0  0
  2  4  2  0  0  0  0
  4  5  1  0  0  0  0
  4 37  1  0  0  0  0
  5  7  1  0  0  0  0
  5  9  2  0  0  0  0
  6  8  1  0  0  0  0
  6 16  1  0  0  0  0
  6 26  2  0  0  0  0
  9 11  1  0  0  0  0
  9 13  1  0  0  0  0
 10 24  1  0  0  0  0
 10 27  1  0  0  0  0
 12 14  1  0  0  0  0
 12 18  2  0  0  0  0
 12 24  1  0  0  0  0
 13 15  1  0  0  0  0
 15 17  1  0  0  0  0
 16 22  1  0  0  0  0
 16 24  2  0  0  0  0
 18 20  1  0  0  0  0
 18 26  1  0  0  0  0
 19 21  1  0  0  0  0
 19 25  2  0  0  0  0
 21 23  1  0  0  0  0
 21 32  1  0  0  0  0
 26 40  1  0  0  0  0
 27 28  1  0  0  0  0
 27 35  2  0  0  0  0
 28 29  1  0  0  0  0
 28 30  2  0  0  0  0
 30 31  1  0  0  0  0
 30 32  1  0  0  0  0
 32 33  2  0  0  0  0
 33 34  1  0  0  0  0
 33 35  1  0  0  0  0
 35 36  1  0  0  0  0
 37 38  2  0  0  0  0
 37 39  1  0  0  0  0
 40 41  2  0  0  0  0
 40 42  1  0  0  0  0
M  CHG  1  37   1
M  CHG  1  39  -1
M  CHG  1  40   1
M  CHG  1  42  -1
M  END
>  <name>
B13

>  <LOGEC50>
0.92000002

>  <MolecularFormula>
C19H12O7N3Cl

>  <ATCH1>
0.26019999

>  <ATCH2>
-0.1461

>  <ATCH3>
0.092799999

>  <ATCH4>
-0.161

>  <ATCH5>
0.1113

>  <ATCH6>
-0.28979999

>  <ATCH7>
-0.2132

>  <ATCH8>
0.42829999

>  <ATCH9>
-0.39700001

>  <ATCH10>
-0.3249

>  <DIPV_X>
-2.3471999

>  <DIPV_Y>
5.1617999

>  <DIPV_Z>
1.3489

>  <DIPMOM>
5.8285999

>  <ESDL1>
-3.6255

>  <ESDL2>
-2.3137

>  <ESDL3>
-0.79350001

>  <ESDL4>
-1.7701

>  <ESDL5>
-1.0545

>  <ESDL6>
-0.86269999

>  <ESDL7>
-0.83420002

>  <ESDL8>
-0.6293

>  <ESDL9>
-0.62339997

>  <ESDL10>
-0.40939999

>  <NSDL1>
1.0239

>  <NSDL2>
1.1073

>  <NSDL3>
1.2209001

>  <NSDL4>
1.803

>  <NSDL5>
1.0518

>  <NSDL6>
1.2257

>  <NSDL7>
0.3766

>  <NSDL8>
2.4008

>  <NSDL9>
0.75629997

>  <NSDL10>
1.096

>  <VDWVOL>
331.99991

>  <SURF_A>
392.10461

>  <MOFI_X>
2622.2456

>  <MOFI_Y>
21989.533

>  <MOFI_Z>
20498.271

>  <PEAX_X>
15.2597

>  <PEAX_Y>
2.5703001

>  <PEAX_Z>
4.9018002

>  <MOL_WT>
429.77383

>  <S8_1DX>
12.4982

>  <S8_1DY>
9.2788

>  <S8_1DZ>
8.4438

>  <S8_1CX>
8.6864996

>  <S8_1CY>
-1.5737

>  <S8_1CZ>
-1.1706001

>  <LOGP>
6.1129999

>  <M_PNT>
208

>  <SUM_F>
0.67000002

>  <SUM_R>
-0.23

$$$$
H14
  MOE2013           3D

 44 46  0  0  0  0  0  0  0  0999 V2000
    1.2080    0.6970    0.0000 C   0  0  0  0  0  0  0  0  0  0  0  0
    0.0000    1.3950    0.0000 C   0  0  0  0  0  0  0  0  0  0  0  0
    0.0000    2.4820    0.0000 H   0  0  0  0  0  0  0  0  0  0  0  0
   -1.2080    0.6980    0.0000 C   0  0  0  0  0  0  0  0  0  0  0  0
   -1.2080   -0.6980    0.0000 C   0  0  0  0  0  0  0  0  0  0  0  0
    8.4870    6.4310   -1.0750 C   0  0  0  0  0  0  0  0  0  0  0  0
   -2.1490   -1.2410    0.0000 H   0  0  0  0  0  0  0  0  0  0  0  0
    8.2640    7.4350   -0.7220 H   0  0  0  0  0  0  0  0  0  0  0  0
    0.0000   -1.3950    0.0000 C   0  0  0  0  0  0  0  0  0  0  0  0
    8.4960    2.9920    0.1710 O   0  0  0  0  0  0  0  0  0  0  0  0
    0.0000   -2.4750    0.0000 H   0  0  0  0  0  0  0  0  0  0  0  0
    9.0600    3.8550   -1.9810 C   0  0  0  0  0  0  0  0  0  0  0  0
    1.2080   -0.6980    0.0000 C   0  0  0  0  0  0  0  0  0  0  0  0
    9.2830    2.8520   -2.3340 H   0  0  0  0  0  0  0  0  0  0  0  0
    2.4000   -1.3860    0.0000 O   0  0  0  0  0  0  0  0  0  0  0  0
    8.3460    5.3420   -0.2150 C   0  0  0  0  0  0  0  0  0  0  0  0
    8.0150    5.4960    0.8010 H   0  0  0  0  0  0  0  0  0  0  0  0
    3.1860   -0.8350    0.0000 H   0  0  0  0  0  0  0  0  0  0  0  0
    9.2010    4.9440   -2.8410 C   0  0  0  0  0  0  0  0  0  0  0  0
    2.3850    1.3780    0.0000 C   0  0  0  0  0  0  0  0  0  0  0  0
    9.5330    4.7900   -3.8640 H   0  0  0  0  0  0  0  0  0  0  0  0
    3.5110    0.6090    0.1310 N   0  0  0  0  0  0  0  0  0  0  0  0
    3.4300   -0.3940    0.2200 H   0  0  0  0  0  0  0  0  0  0  0  0
    8.6330    4.0540   -0.6680 C   0  0  0  0  0  0  0  0  0  0  0  0
    2.4350    2.5960   -0.1110 O   0  0  0  0  0  0  0  0  0  0  0  0
    8.9140    6.2320   -2.3880 C   0  0  0  0  0  0  0  0  0  0  0  0
    9.0530    7.3060   -3.2370 O   0  0  0  0  0  0  0  0  0  0  0  0
    8.7330    8.5650   -2.6670 C   0  0  0  0  0  0  0  0  0  0  0  0
    8.8740    9.3470   -3.4130 H   0  0  0  0  0  0  0  0  0  0  0  0
    9.3860    8.7540   -1.8150 H   0  0  0  0  0  0  0  0  0  0  0  0
    7.6950    8.5610   -2.3350 H   0  0  0  0  0  0  0  0  0  0  0  0
    7.2550    2.3990    0.1600 C   0  0  0  0  0  0  0  0  0  0  0  0
    7.0000    1.3000    0.9820 C   0  0  0  0  0  0  0  0  0  0  0  0
    7.7830    0.9130    1.6300 H   0  0  0  0  0  0  0  0  0  0  0  0
    5.7420    0.6990    0.9720 C   0  0  0  0  0  0  0  0  0  0  0  0
    5.5440   -0.1570    1.6120 H   0  0  0  0  0  0  0  0  0  0  0  0
    4.7380    1.1960    0.1400 C   0  0  0  0  0  0  0  0  0  0  0  0
    4.9920    2.2940   -0.6810 C   0  0  0  0  0  0  0  0  0  0  0  0
    4.2100    2.6810   -1.3290 H   0  0  0  0  0  0  0  0  0  0  0  0
    6.2510    2.8960   -0.6710 C   0  0  0  0  0  0  0  0  0  0  0  0
    6.5640    4.2510   -1.6840 Cl  0  0  0  0  0  0  0  0  0  0  0  0
   -2.3860    1.3780    0.0000 N   0  3  0  0  0  0  0  0  0  0  0  0
   -3.3090    0.8950   -0.6630 O   0  0  0  0  0  0  0  0  0  0  0  0
   -2.4290    2.4190    0.6630 O   0  5  0  0  0  0  0  0  0  0  0  0
  1  2  1  0  0  0  0
  1 13  2  0  0  0  0
  1 20  1  0  0  0  0
  2  3  1  0  0  0  0
  2  4  2  0  0  0  0
  4  5  1  0  0  0  0
  4 42  1  0  0  0  0
  5  7  1  0  0  0  0
  5  9  2  0  0  0  0
  6  8  1  0  0  0  0
  6 16  1  0  0  0  0
  6 26  2  0  0  0  0
  9 11  1  0  0  0  0
  9 13  1  0  0  0  0
 10 24  1  0  0  0  0
 10 32  1  0  0  0  0
 12 14  1  0  0  0  0
 12 19  2  0  0  0  0
 12 24  1  0  0  0  0
 13 15  1  0  0  0  0
 15 18  1  0  0  0  0
 16 17  1  0  0  0  0
 16 24  2  0  0  0  0
 19 21  1  0  0  0  0
 19 26  1  0  0  0  0
 20 22  1  0  0  0  0
 20 25  2  0  0  0  0
 22 23  1  0  0  0  0
 22 37  1  0  0  0  0
 26 27  1  0  0  0  0
 27 28  1  0  0  0  0
 28 29  1  0  0  0  0
 28 30  1  0  0  0  0
 28 31  1  0  0  0  0
 32 33  1  0  0  0  0
 32 40  2  0  0  0  0
 33 34  1  0  0  0  0
 33 35  2  0  0  0  0
 35 36  1  0  0  0  0
 35 37  1  0  0  0  0
 37 38  2  0  0  0  0
 38 39  1  0  0  0  0
 38 40  1  0  0  0  0
 40 41  1  0  0  0  0
 42 43  2  0  0  0  0
 42 44  1  0  0  0  0
M  CHG  1  42   1
M  CHG  1  44  -1
M  END
>  <name>
H14

>  <LOGEC50>
0.76999998

>  <MolecularFormula>
C20H15O6N2Cl

>  <ATCH1>
0.2604

>  <ATCH2>
-0.1469

>  <ATCH3>
0.091700003

>  <ATCH4>
-0.16230001

>  <ATCH5>
0.1116

>  <ATCH6>
-0.28889999

>  <ATCH7>
-0.2132

>  <ATCH8>
0.42640001

>  <ATCH9>
-0.39539999

>  <ATCH10>
-0.3229

>  <DIPV_X>
2.8977001

>  <DIPV_Y>
-0.27849999

>  <DIPV_Z>
-0.0015

>  <DIPMOM>
2.9110999

>  <ESDL1>
-51.0177

>  <ESDL2>
-29.873199

>  <ESDL3>
-1.5157

>  <ESDL4>
-22.459999

>  <ESDL5>
-4.8864999

>  <ESDL6>
-4.2065001

>  <ESDL7>
-7.7191

>  <ESDL8>
-4.5311999

>  <ESDL9>
-2.7104001

>  <ESDL10>
-1.4855

>  <NSDL1>
3.5093

>  <NSDL2>
2.201

>  <NSDL3>
1.1353

>  <NSDL4>
2.9021001

>  <NSDL5>
1.1461

>  <NSDL6>
1.4756

>  <NSDL7>
0.72850001

>  <NSDL8>
2.0959001

>  <NSDL9>
0.6674

>  <NSDL10>
1.0505

>  <VDWVOL>
328.49991

>  <SURF_A>
394.02155

>  <MOFI_X>
2529.676

>  <MOFI_Y>
19250.004

>  <MOFI_Z>
17192.373

>  <PEAX_X>
14.3277

>  <PEAX_Y>
1.6904

>  <PEAX_Z>
5.2695999

>  <MOL_WT>
414.8027

>  <S8_1DX>
12.9533

>  <S8_1DY>
10.076

>  <S8_1DZ>
6.4081001

>  <S8_1CX>
9.1197004

>  <S8_1CY>
-1.7659

>  <S8_1CZ>
-1.234

>  <LOGP>
6.1799998

>  <M_PNT>
159

>  <SUM_F>
0.67000002

>  <SUM_R>
-0.23

$$$$
F15
  MOE2013           3D

 44 46  0  0  0  0  0  0  0  0999 V2000
    1.2080    0.6970    0.0000 C   0  0  0  0  0  0  0  0  0  0  0  0
    0.0000    1.3950    0.0000 C   0  0  0  0  0  0  0  0  0  0  0  0
    0.0000    2.4820    0.0000 H   0  0  0  0  0  0  0  0  0  0  0  0
   -1.2080    0.6980    0.0000 C   0  0  0  0  0  0  0  0  0  0  0  0
   -2.1430    1.2380    0.0000 H   0  0  0  0  0  0  0  0  0  0  0  0
   -1.2080   -0.6980    0.0000 C   0  0  0  0  0  0  0  0  0  0  0  0
    8.4870    6.4310   -1.0750 C   0  0  0  0  0  0  0  0  0  0  0  0
   -2.1490   -1.2410    0.0000 H   0  0  0  0  0  0  0  0  0  0  0  0
    8.2640    7.4350   -0.7220 H   0  0  0  0  0  0  0  0  0  0  0  0
    0.0000   -1.3950    0.0000 C   0  0  0  0  0  0  0  0  0  0  0  0
    8.4960    2.9920    0.1710 O   0  0  0  0  0  0  0  0  0  0  0  0
    9.0600    3.8550   -1.9810 C   0  0  0  0  0  0  0  0  0  0  0  0
    1.2080   -0.6980    0.0000 C   0  0  0  0  0  0  0  0  0  0  0  0
    9.2830    2.8520   -2.3340 H   0  0  0  0  0  0  0  0  0  0  0  0
    2.4000   -1.3860    0.0000 O   0  0  0  0  0  0  0  0  0  0  0  0
    8.3460    5.3420   -0.2150 C   0  0  0  0  0  0  0  0  0  0  0  0
    8.0160    5.4960    0.8020 H   0  0  0  0  0  0  0  0  0  0  0  0
    3.1860   -0.8350    0.0000 H   0  0  0  0  0  0  0  0  0  0  0  0
    9.2010    4.9440   -2.8410 C   0  0  0  0  0  0  0  0  0  0  0  0
    2.3850    1.3780    0.0000 C   0  0  0  0  0  0  0  0  0  0  0  0
    9.5330    4.7900   -3.8640 H   0  0  0  0  0  0  0  0  0  0  0  0
    3.5110    0.6090    0.1310 N   0  0  0  0  0  0  0  0  0  0  0  0
    3.4300   -0.3940    0.2200 H   0  0  0  0  0  0  0  0  0  0  0  0
    8.6330    4.0540   -0.6680 C   0  0  0  0  0  0  0  0  0  0  0  0
    2.4350    2.5960   -0.1110 O   0  0  0  0  0  0  0  0  0  0  0  0
    8.9140    6.2320   -2.3880 C   0  0  0  0  0  0  0  0  0  0  0  0
    9.0870    7.5760   -3.4490 Cl  0  0  0  0  0  0  0  0  0  0  0  0
    7.2550    2.3990    0.1600 C   0  0  0  0  0  0  0  0  0  0  0  0
    7.0000    1.3000    0.9820 C   0  0  0  0  0  0  0  0  0  0  0  0
    7.7830    0.9130    1.6300 H   0  0  0  0  0  0  0  0  0  0  0  0
    5.7420    0.6990    0.9720 C   0  0  0  0  0  0  0  0  0  0  0  0
    5.5440   -0.1570    1.6120 H   0  0  0  0  0  0  0  0  0  0  0  0
    4.7380    1.1960    0.1400 C   0  0  0  0  0  0  0  0  0  0  0  0
    4.9920    2.2940   -0.6810 C   0  0  0  0  0  0  0  0  0  0  0  0
    4.2100    2.6810   -1.3290 H   0  0  0  0  0  0  0  0  0  0  0  0
    6.2510    2.8960   -0.6710 C   0  0  0  0  0  0  0  0  0  0  0  0
    6.5640    4.2510   -1.6840 Cl  0  0  0  0  0  0  0  0  0  0  0  0
    0.0000   -3.0950    0.0000 S   0  0  0  0  0  0  0  0  0  0  0  0
    1.7010   -3.5910    0.0000 C   0  0  0  0  0  0  0  0  0  0  0  0
    2.1710   -3.2760    0.9320 H   0  0  0  0  0  0  0  0  0  0  0  0
    2.2150   -3.1250   -0.8410 H   0  0  0  0  0  0  0  0  0  0  0  0
    1.7640   -4.6750   -0.0910 H   0  0  0  0  0  0  0  0  0  0  0  0
   -0.5830   -3.5320    1.2550 O   0  0  0  0  0  0  0  0  0  0  0  0
   -0.5830   -3.5320   -1.2550 O   0  0  0  0  0  0  0  0  0  0  0  0
  1  2  1  0  0  0  0
  1 13  2  0  0  0  0
  1 20  1  0  0  0  0
  2  3  1  0  0  0  0
  2  4  2  0  0  0  0
  4  5  1  0  0  0  0
  4  6  1  0  0  0  0
  6  8  1  0  0  0  0
  6 10  2  0  0  0  0
  7  9  1  0  0  0  0
  7 16  1  0  0  0  0
  7 26  2  0  0  0  0
 10 13  1  0  0  0  0
 10 38  1  0  0  0  0
 11 24  1  0  0  0  0
 11 28  1  0  0  0  0
 12 14  1  0  0  0  0
 12 19  2  0  0  0  0
 12 24  1  0  0  0  0
 13 15  1  0  0  0  0
 15 18  1  0  0  0  0
 16 17  1  0  0  0  0
 16 24  2  0  0  0  0
 19 21  1  0  0  0  0
 19 26  1  0  0  0  0
 20 22  1  0  0  0  0
 20 25  2  0  0  0  0
 22 23  1  0  0  0  0
 22 33  1  0  0  0  0
 26 27  1  0  0  0  0
 28 29  1  0  0  0  0
 28 36  2  0  0  0  0
 29 30  1  0  0  0  0
 29 31  2  0  0  0  0
 31 32  1  0  0  0  0
 31 33  1  0  0  0  0
 33 34  2  0  0  0  0
 34 35  1  0  0  0  0
 34 36  1  0  0  0  0
 36 37  1  0  0  0  0
 38 39  1  0  0  0  0
 38 43  2  0  0  0  0
 38 44  2  0  0  0  0
 39 40  1  0  0  0  0
 39 41  1  0  0  0  0
 39 42  1  0  0  0  0
M  END
>  <name>
F15

>  <LOGEC50>
0.30000001

>  <MolecularFormula>
C20H15O5NCl2S

>  <ATCH1>
0.2913

>  <ATCH2>
-0.523

>  <ATCH3>
0.1274

>  <ATCH4>
-0.1442

>  <ATCH5>
0.080600001

>  <ATCH6>
-0.28740001

>  <ATCH7>
-0.226

>  <ATCH8>
0.42609999

>  <ATCH9>
-0.39309999

>  <ATCH10>
-0.32640001

>  <DIPV_X>
0.96090001

>  <DIPV_Y>
-6.1255002

>  <DIPV_Z>
-3.303

>  <DIPMOM>
7.0253

>  <ESDL1>
-1.3643

>  <ESDL2>
-0.99989998

>  <ESDL3>
-0.861

>  <ESDL4>
-0.85799998

>  <ESDL5>
-0.87980002

>  <ESDL6>
-0.67580003

>  <ESDL7>
-0.51459998

>  <ESDL8>
-0.36880001

>  <ESDL9>
-0.4993

>  <ESDL10>
-0.3427

>  <NSDL1>
0.99489999

>  <NSDL2>
1.1112

>  <NSDL3>
1.2251

>  <NSDL4>
1.1739

>  <NSDL5>
1.0567

>  <NSDL6>
1.1252

>  <NSDL7>
0.36570001

>  <NSDL8>
2.2353001

>  <NSDL9>
0.71899998

>  <NSDL10>
1.046

>  <VDWVOL>
353.59985

>  <SURF_A>
411.79279

>  <MOFI_X>
1993.354

>  <MOFI_Y>
23754.705

>  <MOFI_Z>
22894.076

>  <PEAX_X>
15.7683

>  <PEAX_Y>
2.5114

>  <PEAX_Z>
3.9863

>  <MOL_WT>
452.3096

>  <S8_1DX>
11.6899

>  <S8_1DY>
9.6063004

>  <S8_1DZ>
6.4383998

>  <S8_1CX>
8.4671001

>  <S8_1CY>
-1.2903

>  <S8_1CZ>
-1.7341

>  <LOGP>
5.6810002

>  <M_PNT>
178

>  <SUM_F>
0.54000002

>  <SUM_R>
0.23

$$$$
C16
  MOE2013           3D

 40 42  0  0  0  0  0  0  0  0999 V2000
    1.2080    0.6970    0.0000 C   0  0  0  0  0  0  0  0  0  0  0  0
    0.0000    1.3950    0.0000 C   0  0  0  0  0  0  0  0  0  0  0  0
    0.0000    2.4820    0.0000 H   0  0  0  0  0  0  0  0  0  0  0  0
   -1.2080    0.6980    0.0000 C   0  0  0  0  0  0  0  0  0  0  0  0
   -1.2080   -0.6980    0.0000 C   0  0  0  0  0  0  0  0  0  0  0  0
    8.4870    6.4310   -1.0750 C   0  0  0  0  0  0  0  0  0  0  0  0
   -2.1490   -1.2410    0.0000 H   0  0  0  0  0  0  0  0  0  0  0  0
    8.2640    7.4350   -0.7220 H   0  0  0  0  0  0  0  0  0  0  0  0
    0.0000   -1.3950    0.0000 C   0  0  0  0  0  0  0  0  0  0  0  0
    0.0000   -2.4750    0.0000 H   0  0  0  0  0  0  0  0  0  0  0  0
    8.4960    2.9920    0.1710 S   0  0  0  0  0  0  0  0  0  0  0  0
    9.0600    3.8550   -1.9810 C   0  0  0  0  0  0  0  0  0  0  0  0
    1.2080   -0.6980    0.0000 C   0  0  0  0  0  0  0  0  0  0  0  0
    9.2830    2.8520   -2.3340 H   0  0  0  0  0  0  0  0  0  0  0  0
    2.4000   -1.3860    0.0000 O   0  0  0  0  0  0  0  0  0  0  0  0
    8.3460    5.3420   -0.2150 C   0  0  0  0  0  0  0  0  0  0  0  0
    8.0160    5.4960    0.8020 H   0  0  0  0  0  0  0  0  0  0  0  0
    3.1860   -0.8350    0.0000 H   0  0  0  0  0  0  0  0  0  0  0  0
    9.2010    4.9440   -2.8410 C   0  0  0  0  0  0  0  0  0  0  0  0
    2.3850    1.3780    0.0000 C   0  0  0  0  0  0  0  0  0  0  0  0
    9.5330    4.7900   -3.8640 H   0  0  0  0  0  0  0  0  0  0  0  0
    3.5110    0.6090    0.1310 N   0  0  0  0  0  0  0  0  0  0  0  0
    3.4300   -0.3940    0.2200 H   0  0  0  0  0  0  0  0  0  0  0  0
    8.6330    4.0540   -0.6680 C   0  0  0  0  0  0  0  0  0  0  0  0
    2.4350    2.5960   -0.1110 O   0  0  0  0  0  0  0  0  0  0  0  0
    8.9140    6.2320   -2.3880 C   0  0  0  0  0  0  0  0  0  0  0  0
    9.0870    7.5760   -3.4490 Cl  0  0  0  0  0  0  0  0  0  0  0  0
    7.2550    2.3990    0.1600 C   0  0  0  0  0  0  0  0  0  0  0  0
    7.0000    1.3000    0.9820 C   0  0  0  0  0  0  0  0  0  0  0  0
    7.7830    0.9130    1.6300 H   0  0  0  0  0  0  0  0  0  0  0  0
    5.7420    0.6990    0.9720 C   0  0  0  0  0  0  0  0  0  0  0  0
    5.5440   -0.1570    1.6120 H   0  0  0  0  0  0  0  0  0  0  0  0
    4.7380    1.1960    0.1400 C   0  0  0  0  0  0  0  0  0  0  0  0
    4.9920    2.2940   -0.6810 C   0  0  0  0  0  0  0  0  0  0  0  0
    4.2100    2.6810   -1.3290 H   0  0  0  0  0  0  0  0  0  0  0  0
    6.2510    2.8960   -0.6710 C   0  0  0  0  0  0  0  0  0  0  0  0
    6.5640    4.2510   -1.6840 Cl  0  0  0  0  0  0  0  0  0  0  0  0
   -2.3860    1.3780    0.0000 N   0  3  0  0  0  0  0  0  0  0  0  0
   -2.4290    2.4190    0.6630 O   0  0  0  0  0  0  0  0  0  0  0  0
   -3.3090    0.8950   -0.6630 O   0  5  0  0  0  0  0  0  0  0  0  0
  1  2  1  0  0  0  0
  1 13  2  0  0  0  0
  1 20  1  0  0  0  0
  2  3  1  0  0  0  0
  2  4  2  0  0  0  0
  4  5  1  0  0  0  0
  4 38  1  0  0  0  0
  5  7  1  0  0  0  0
  5  9  2  0  0  0  0
  6  8  1  0  0  0  0
  6 16  1  0  0  0  0
  6 26  2  0  0  0  0
  9 10  1  0  0  0  0
  9 13  1  0  0  0  0
 11 24  1  0  0  0  0
 11 28  1  0  0  0  0
 12 14  1  0  0  0  0
 12 19  2  0  0  0  0
 12 24  1  0  0  0  0
 13 15  1  0  0  0  0
 15 18  1  0  0  0  0
 16 17  1  0  0  0  0
 16 24  2  0  0  0  0
 19 21  1  0  0  0  0
 19 26  1  0  0  0  0
 20 22  1  0  0  0  0
 20 25  2  0  0  0  0
 22 23  1  0  0  0  0
 22 33  1  0  0  0  0
 26 27  1  0  0  0  0
 28 29  1  0  0  0  0
 28 36  2  0  0  0  0
 29 30  1  0  0  0  0
 29 31  2  0  0  0  0
 31 32  1  0  0  0  0
 31 33  1  0  0  0  0
 33 34  2  0  0  0  0
 34 35  1  0  0  0  0
 34 36  1  0  0  0  0
 36 37  1  0  0  0  0
 38 39  2  0  0  0  0
 38 40  1  0  0  0  0
M  CHG  1  38   1
M  CHG  1  40  -1
M  END
>  <name>
C16

>  <LOGEC50>
1.36

>  <MolecularFormula>
C19H12SO4N2Cl2

>  <ATCH1>
0.25999999

>  <ATCH2>
-0.14579999

>  <ATCH3>
0.092299998

>  <ATCH4>
-0.161

>  <ATCH5>
0.1103

>  <ATCH6>
-0.2888

>  <ATCH7>
-0.2113

>  <ATCH8>
0.42680001

>  <ATCH9>
-0.3906

>  <ATCH10>
-0.32640001

>  <DIPV_X>
0.27990001

>  <DIPV_Y>
1.084

>  <DIPV_Z>
-0.2142

>  <DIPMOM>
1.1399

>  <ESDL1>
-5.5805001

>  <ESDL2>
-3.4700999

>  <ESDL3>
-0.824

>  <ESDL4>
-2.6015

>  <ESDL5>
-1.2302999

>  <ESDL6>
-0.9914

>  <ESDL7>
-1.1163

>  <ESDL8>
-0.69700003

>  <ESDL9>
-0.67299998

>  <ESDL10>
-0.45969999

>  <NSDL1>
1.0046

>  <NSDL2>
1.0785

>  <NSDL3>
1.1797

>  <NSDL4>
1.7299

>  <NSDL5>
1.0307

>  <NSDL6>
1.1852

>  <NSDL7>
0.3725

>  <NSDL8>
2.2456

>  <NSDL9>
0.71139997

>  <NSDL10>
1.0432

>  <VDWVOL>
332.2999

>  <SURF_A>
391.05966

>  <MOFI_X>
3615.8687

>  <MOFI_Y>
20164.713

>  <MOFI_Z>
17081.309

>  <PEAX_X>
13.9506

>  <PEAX_Y>
1.7553999

>  <PEAX_Z>
6.2265

>  <MOL_WT>
435.28189

>  <S8_1DX>
10.182

>  <S8_1DY>
11.9139

>  <S8_1DZ>
6.9457998

>  <S8_1CX>
7.3656998

>  <S8_1CY>
-2.4667001

>  <S8_1CZ>
2.2822001

>  <LOGP>
6.8379998

>  <M_PNT>
222

>  <SUM_F>
0.67000002

>  <SUM_R>
-0.23

$$$$
K17
  MOE2013           3D

 39 39  0  0  0  0  0  0  0  0999 V2000
    1.2080    0.6970    0.0000 C   0  0  0  0  0  0  0  0  0  0  0  0
    0.0000    1.3950    0.0000 C   0  0  0  0  0  0  0  0  0  0  0  0
    0.0000    2.4820    0.0000 H   0  0  0  0  0  0  0  0  0  0  0  0
   -1.2080    0.6980    0.0000 C   0  0  0  0  0  0  0  0  0  0  0  0
   -2.1430    1.2380    0.0000 H   0  0  0  0  0  0  0  0  0  0  0  0
   -1.2080   -0.6980    0.0000 C   0  0  0  0  0  0  0  0  0  0  0  0
   -2.1490   -1.2410    0.0000 H   0  0  0  0  0  0  0  0  0  0  0  0
    0.0000   -1.3950    0.0000 C   0  0  0  0  0  0  0  0  0  0  0  0
    0.0000   -2.7930    0.0000 N   0  0  0  0  0  0  0  0  0  0  0  0
    0.8750   -3.2980    0.0000 H   0  0  0  0  0  0  0  0  0  0  0  0
    1.2080   -0.6980    0.0000 C   0  0  0  0  0  0  0  0  0  0  0  0
    2.4000   -1.3860    0.0000 O   0  0  0  0  0  0  0  0  0  0  0  0
    3.1860   -0.8350    0.0000 H   0  0  0  0  0  0  0  0  0  0  0  0
    2.3850    1.3780    0.0000 C   0  0  0  0  0  0  0  0  0  0  0  0
    3.5110    0.6090    0.1310 N   0  0  0  0  0  0  0  0  0  0  0  0
    3.4300   -0.3940    0.2200 H   0  0  0  0  0  0  0  0  0  0  0  0
    4.8060    1.2290    0.1420 C   0  0  0  0  0  0  0  0  0  0  0  0
    5.8690    0.1700    0.2960 C   0  0  0  0  0  0  0  0  0  0  0  0
    7.2290    0.8200    0.3080 C   0  0  0  0  0  0  0  0  0  0  0  0
    8.2920   -0.2390    0.4620 C   0  0  0  0  0  0  0  0  0  0  0  0
    9.6520    0.4120    0.4740 C   0  0  0  0  0  0  0  0  0  0  0  0
   10.7140   -0.6470    0.6280 C   0  0  0  0  0  0  0  0  0  0  0  0
   11.6980   -0.1770    0.6370 H   0  0  0  0  0  0  0  0  0  0  0  0
   10.6530   -1.3470   -0.2050 H   0  0  0  0  0  0  0  0  0  0  0  0
   10.5600   -1.1830    1.5650 H   0  0  0  0  0  0  0  0  0  0  0  0
    9.7130    1.1120    1.3070 H   0  0  0  0  0  0  0  0  0  0  0  0
    9.8060    0.9470   -0.4630 H   0  0  0  0  0  0  0  0  0  0  0  0
    8.2310   -0.9390   -0.3710 H   0  0  0  0  0  0  0  0  0  0  0  0
    8.1370   -0.7740    1.3990 H   0  0  0  0  0  0  0  0  0  0  0  0
    7.2900    1.5200    1.1410 H   0  0  0  0  0  0  0  0  0  0  0  0
    7.3840    1.3560   -0.6290 H   0  0  0  0  0  0  0  0  0  0  0  0
    5.8080   -0.5310   -0.5370 H   0  0  0  0  0  0  0  0  0  0  0  0
    5.7140   -0.3660    1.2330 H   0  0  0  0  0  0  0  0  0  0  0  0
    4.8670    1.9290    0.9750 H   0  0  0  0  0  0  0  0  0  0  0  0
    4.9610    1.7640   -0.7950 H   0  0  0  0  0  0  0  0  0  0  0  0
    2.4350    2.5960   -0.1110 O   0  0  0  0  0  0  0  0  0  0  0  0
   -1.1780   -3.4730    0.0000 C   0  0  0  0  0  0  0  0  0  0  0  0
   -1.1770   -4.4230    0.5580 H   0  0  0  0  0  0  0  0  0  0  0  0
   -2.1720   -3.0560   -0.5800 O   0  0  0  0  0  0  0  0  0  0  0  0
  1  2  1  0  0  0  0
  1 11  2  0  0  0  0
  1 14  1  0  0  0  0
  2  3  1  0  0  0  0
  2  4  2  0  0  0  0
  4  5  1  0  0  0  0
  4  6  1  0  0  0  0
  6  7  1  0  0  0  0
  6  8  2  0  0  0  0
  8  9  1  0  0  0  0
  8 11  1  0  0  0  0
  9 10  1  0  0  0  0
  9 37  1  0  0  0  0
 11 12  1  0  0  0  0
 12 13  1  0  0  0  0
 14 15  1  0  0  0  0
 14 36  2  0  0  0  0
 15 16  1  0  0  0  0
 15 17  1  0  0  0  0
 17 18  1  0  0  0  0
 17 34  1  0  0  0  0
 17 35  1  0  0  0  0
 18 19  1  0  0  0  0
 18 32  1  0  0  0  0
 18 33  1  0  0  0  0
 19 20  1  0  0  0  0
 19 30  1  0  0  0  0
 19 31  1  0  0  0  0
 20 21  1  0  0  0  0
 20 28  1  0  0  0  0
 20 29  1  0  0  0  0
 21 22  1  0  0  0  0
 21 26  1  0  0  0  0
 21 27  1  0  0  0  0
 22 23  1  0  0  0  0
 22 24  1  0  0  0  0
 22 25  1  0  0  0  0
 37 38  1  0  0  0  0
 37 39  2  0  0  0  0
M  END
>  <name>
K17

>  <LOGEC50>
-1

>  <MolecularFormula>
C14H20N2O3

>  <ATCH1>
0.16850001

>  <ATCH2>
0.038600001

>  <ATCH3>
-0.0083999997

>  <ATCH4>
-0.101

>  <ATCH5>
0.0035000001

>  <ATCH6>
-0.241

>  <ATCH7>
-0.25240001

>  <ATCH8>
0.4188

>  <ATCH9>
-0.41249999

>  <ATCH10>
-0.4043

>  <DIPV_X>
1.0017

>  <DIPV_Y>
-2.6659999

>  <DIPV_Z>
-0.0328

>  <DIPMOM>
2.8480999

>  <ESDL1>
-0.54549998

>  <ESDL2>
-0.80339998

>  <ESDL3>
-1.6953

>  <ESDL4>
-0.28850001

>  <ESDL5>
-1.2909

>  <ESDL6>
-1.4224

>  <ESDL7>
-0.4025

>  <ESDL8>
-0.46630001

>  <ESDL9>
-0.60600001

>  <ESDL10>
-0.38949999

>  <NSDL1>
7.5332999

>  <NSDL2>
4.1605

>  <NSDL3>
1.099

>  <NSDL4>
5.9682999

>  <NSDL5>
4.0047998

>  <NSDL6>
1.0283

>  <NSDL7>
1.2598

>  <NSDL8>
1.4602

>  <NSDL9>
0.49340001

>  <NSDL10>
0.6803

>  <VDWVOL>
250.40009

>  <SURF_A>
314.22668

>  <MOFI_X>
574.20453

>  <MOFI_Y>
9189.6504

>  <MOFI_Z>
8711.1963

>  <PEAX_X>
12.8093

>  <PEAX_Y>
0.9522

>  <PEAX_Z>
3.1573

>  <MOL_WT>
264.32553

>  <S8_1DX>
6.9011998

>  <S8_1DY>
9.7093

>  <S8_1DZ>
5.3613

>  <S8_1CX>
5.2364998

>  <S8_1CY>
-5.0591002

>  <S8_1CZ>
-0.56919998

>  <LOGP>
3.007

>  <M_PNT>
62

>  <SUM_F>
0.25

>  <SUM_R>
-0.23

$$$$
K18
  MOE2013           3D

 45 45  0  0  0  0  0  0  0  0999 V2000
    1.2080    0.6970    0.0000 C   0  0  0  0  0  0  0  0  0  0  0  0
    0.0000    1.3950    0.0000 C   0  0  0  0  0  0  0  0  0  0  0  0
    0.0000    2.4820    0.0000 H   0  0  0  0  0  0  0  0  0  0  0  0
   -1.2080    0.6980    0.0000 C   0  0  0  0  0  0  0  0  0  0  0  0
   -2.1430    1.2380    0.0000 H   0  0  0  0  0  0  0  0  0  0  0  0
   -1.2080   -0.6980    0.0000 C   0  0  0  0  0  0  0  0  0  0  0  0
   -2.1490   -1.2410    0.0000 H   0  0  0  0  0  0  0  0  0  0  0  0
    0.0000   -1.3950    0.0000 C   0  0  0  0  0  0  0  0  0  0  0  0
    0.0000   -2.7930    0.0000 N   0  0  0  0  0  0  0  0  0  0  0  0
    0.8750   -3.2980    0.0000 H   0  0  0  0  0  0  0  0  0  0  0  0
    1.2080   -0.6980    0.0000 C   0  0  0  0  0  0  0  0  0  0  0  0
    2.4000   -1.3860    0.0000 O   0  0  0  0  0  0  0  0  0  0  0  0
    3.1860   -0.8350    0.0000 H   0  0  0  0  0  0  0  0  0  0  0  0
    2.3850    1.3780    0.0000 C   0  0  0  0  0  0  0  0  0  0  0  0
    3.5110    0.6090    0.1310 N   0  0  0  0  0  0  0  0  0  0  0  0
    3.4300   -0.3940    0.2200 H   0  0  0  0  0  0  0  0  0  0  0  0
    4.8060    1.2290    0.1420 C   0  0  0  0  0  0  0  0  0  0  0  0
    5.8690    0.1700    0.2960 C   0  0  0  0  0  0  0  0  0  0  0  0
    7.2290    0.8200    0.3080 C   0  0  0  0  0  0  0  0  0  0  0  0
    8.2920   -0.2390    0.4620 C   0  0  0  0  0  0  0  0  0  0  0  0
    9.6520    0.4120    0.4740 C   0  0  0  0  0  0  0  0  0  0  0  0
   10.7140   -0.6470    0.6280 C   0  0  0  0  0  0  0  0  0  0  0  0
   12.0750    0.0030    0.6400 C   0  0  0  0  0  0  0  0  0  0  0  0
   13.1370   -1.0560    0.7940 C   0  0  0  0  0  0  0  0  0  0  0  0
   14.1200   -0.5850    0.8030 H   0  0  0  0  0  0  0  0  0  0  0  0
   13.0760   -1.7560   -0.0390 H   0  0  0  0  0  0  0  0  0  0  0  0
   12.9830   -1.5910    1.7310 H   0  0  0  0  0  0  0  0  0  0  0  0
   12.1360    0.7040    1.4730 H   0  0  0  0  0  0  0  0  0  0  0  0
   12.2290    0.5390   -0.2970 H   0  0  0  0  0  0  0  0  0  0  0  0
   10.6530   -1.3470   -0.2050 H   0  0  0  0  0  0  0  0  0  0  0  0
   10.5600   -1.1830    1.5650 H   0  0  0  0  0  0  0  0  0  0  0  0
    9.7130    1.1120    1.3070 H   0  0  0  0  0  0  0  0  0  0  0  0
    9.8060    0.9470   -0.4630 H   0  0  0  0  0  0  0  0  0  0  0  0
    8.2310   -0.9390   -0.3710 H   0  0  0  0  0  0  0  0  0  0  0  0
    8.1370   -0.7740    1.3990 H   0  0  0  0  0  0  0  0  0  0  0  0
    7.2900    1.5200    1.1410 H   0  0  0  0  0  0  0  0  0  0  0  0
    7.3840    1.3560   -0.6290 H   0  0  0  0  0  0  0  0  0  0  0  0
    5.8080   -0.5310   -0.5370 H   0  0  0  0  0  0  0  0  0  0  0  0
    5.7140   -0.3660    1.2330 H   0  0  0  0  0  0  0  0  0  0  0  0
    4.8670    1.9290    0.9750 H   0  0  0  0  0  0  0  0  0  0  0  0
    4.9610    1.7640   -0.7950 H   0  0  0  0  0  0  0  0  0  0  0  0
    2.4350    2.5960   -0.1110 O   0  0  0  0  0  0  0  0  0  0  0  0
   -1.1780   -3.4730    0.0000 C   0  0  0  0  0  0  0  0  0  0  0  0
   -1.1770   -4.4230    0.5580 H   0  0  0  0  0  0  0  0  0  0  0  0
   -2.1720   -3.0560   -0.5800 O   0  0  0  0  0  0  0  0  0  0  0  0
  1  2  1  0  0  0  0
  1 11  2  0  0  0  0
  1 14  1  0  0  0  0
  2  3  1  0  0  0  0
  2  4  2  0  0  0  0
  4  5  1  0  0  0  0
  4  6  1  0  0  0  0
  6  7  1  0  0  0  0
  6  8  2  0  0  0  0
  8  9  1  0  0  0  0
  8 11  1  0  0  0  0
  9 10  1  0  0  0  0
  9 43  1  0  0  0  0
 11 12  1  0  0  0  0
 12 13  1  0  0  0  0
 14 15  1  0  0  0  0
 14 42  2  0  0  0  0
 15 16  1  0  0  0  0
 15 17  1  0  0  0  0
 17 18  1  0  0  0  0
 17 40  1  0  0  0  0
 17 41  1  0  0  0  0
 18 19  1  0  0  0  0
 18 38  1  0  0  0  0
 18 39  1  0  0  0  0
 19 20  1  0  0  0  0
 19 36  1  0  0  0  0
 19 37  1  0  0  0  0
 20 21  1  0  0  0  0
 20 34  1  0  0  0  0
 20 35  1  0  0  0  0
 21 22  1  0  0  0  0
 21 32  1  0  0  0  0
 21 33  1  0  0  0  0
 22 23  1  0  0  0  0
 22 30  1  0  0  0  0
 22 31  1  0  0  0  0
 23 24  1  0  0  0  0
 23 28  1  0  0  0  0
 23 29  1  0  0  0  0
 24 25  1  0  0  0  0
 24 26  1  0  0  0  0
 24 27  1  0  0  0  0
 43 44  1  0  0  0  0
 43 45  2  0  0  0  0
M  END
>  <name>
K18

>  <LOGEC50>
-0.41

>  <MolecularFormula>
C16H24N2O3

>  <ATCH1>
0.16859999

>  <ATCH2>
0.039099999

>  <ATCH3>
-0.0088999998

>  <ATCH4>
-0.1006

>  <ATCH5>
0.0027999999

>  <ATCH6>
-0.2401

>  <ATCH7>
-0.25209999

>  <ATCH8>
0.4181

>  <ATCH9>
-0.4129

>  <ATCH10>
-0.4039

>  <DIPV_X>
0.99360001

>  <DIPV_Y>
-2.6456001

>  <DIPV_Z>
-0.0186

>  <DIPMOM>
2.8261001

>  <ESDL1>
-0.54710001

>  <ESDL2>
-0.80299997

>  <ESDL3>
-1.7000999

>  <ESDL4>
-0.28960001

>  <ESDL5>
-1.29

>  <ESDL6>
-1.4288

>  <ESDL7>
-0.40220001

>  <ESDL8>
-0.4646

>  <ESDL9>
-0.60619998

>  <ESDL10>
-0.38929999

>  <NSDL1>
7.7428002

>  <NSDL2>
4.2789998

>  <NSDL3>
1.102

>  <NSDL4>
6.1255002

>  <NSDL5>
4.1087999

>  <NSDL6>
1.0315

>  <NSDL7>
1.2854

>  <NSDL8>
1.4571

>  <NSDL9>
0.4939

>  <NSDL10>
0.67909998

>  <VDWVOL>
282.80002

>  <SURF_A>
358.10831

>  <MOFI_X>
623.59857

>  <MOFI_Y>
13796.099

>  <MOFI_Z>
13431.948

>  <PEAX_X>
15.0923

>  <PEAX_Y>
1.4904

>  <PEAX_Z>
2.9080999

>  <MOL_WT>
292.37949

>  <S8_1DX>
7.9625001

>  <S8_1DY>
11.8851

>  <S8_1DZ>
5.9513001

>  <S8_1CX>
5.7533998

>  <S8_1CY>
-6.1532998

>  <S8_1CZ>
-0.92820001

>  <LOGP>
4.0650001

>  <M_PNT>
78

>  <SUM_F>
0.25

>  <SUM_R>
-0.23

$$$$
J19
  MOE2013           3D

 66 66  0  0  0  0  0  0  0  0999 V2000
    1.2080    0.6970    0.0000 C   0  0  0  0  0  0  0  0  0  0  0  0
    0.0000    1.3950    0.0000 C   0  0  0  0  0  0  0  0  0  0  0  0
    0.0000    2.4820    0.0000 H   0  0  0  0  0  0  0  0  0  0  0  0
   -1.2080    0.6980    0.0000 C   0  0  0  0  0  0  0  0  0  0  0  0
   -2.1430    1.2380    0.0000 H   0  0  0  0  0  0  0  0  0  0  0  0
   -1.2080   -0.6980    0.0000 C   0  0  0  0  0  0  0  0  0  0  0  0
   -2.1490   -1.2410    0.0000 H   0  0  0  0  0  0  0  0  0  0  0  0
    0.0000   -1.3950    0.0000 C   0  0  0  0  0  0  0  0  0  0  0  0
    0.0000   -2.7930    0.0000 N   0  0  0  0  0  0  0  0  0  0  0  0
    0.8750   -3.2980    0.0000 H   0  0  0  0  0  0  0  0  0  0  0  0
    1.2080   -0.6980    0.0000 C   0  0  0  0  0  0  0  0  0  0  0  0
    2.4000   -1.3860    0.0000 O   0  0  0  0  0  0  0  0  0  0  0  0
    3.1860   -0.8350    0.0000 H   0  0  0  0  0  0  0  0  0  0  0  0
    2.3850    1.3780    0.0000 C   0  0  0  0  0  0  0  0  0  0  0  0
    3.5110    0.6090    0.1310 N   0  0  0  0  0  0  0  0  0  0  0  0
    3.4300   -0.3940    0.2200 H   0  0  0  0  0  0  0  0  0  0  0  0
    4.8060    1.2290    0.1420 C   0  0  0  0  0  0  0  0  0  0  0  0
    5.8690    0.1700    0.2960 C   0  0  0  0  0  0  0  0  0  0  0  0
    7.2290    0.8200    0.3080 C   0  0  0  0  0  0  0  0  0  0  0  0
    8.2920   -0.2390    0.4620 C   0  0  0  0  0  0  0  0  0  0  0  0
    9.6520    0.4120    0.4740 C   0  0  0  0  0  0  0  0  0  0  0  0
   10.7140   -0.6470    0.6280 C   0  0  0  0  0  0  0  0  0  0  0  0
   12.0750    0.0030    0.6400 C   0  0  0  0  0  0  0  0  0  0  0  0
   13.1370   -1.0560    0.7940 C   0  0  0  0  0  0  0  0  0  0  0  0
   14.4970   -0.4050    0.8060 C   0  0  0  0  0  0  0  0  0  0  0  0
   15.5600   -1.4640    0.9600 C   0  0  0  0  0  0  0  0  0  0  0  0
   16.9200   -0.8130    0.9720 C   0  0  0  0  0  0  0  0  0  0  0  0
   17.9830   -1.8720    1.1260 C   0  0  0  0  0  0  0  0  0  0  0  0
   19.3430   -1.2220    1.1380 C   0  0  0  0  0  0  0  0  0  0  0  0
   20.4050   -2.2810    1.2920 C   0  0  0  0  0  0  0  0  0  0  0  0
   21.3890   -1.8100    1.3000 H   0  0  0  0  0  0  0  0  0  0  0  0
   20.3440   -2.9810    0.4590 H   0  0  0  0  0  0  0  0  0  0  0  0
   20.2510   -2.8160    2.2290 H   0  0  0  0  0  0  0  0  0  0  0  0
   19.4040   -0.5220    1.9710 H   0  0  0  0  0  0  0  0  0  0  0  0
   19.4970   -0.6860    0.2010 H   0  0  0  0  0  0  0  0  0  0  0  0
   17.9220   -2.5730    0.2930 H   0  0  0  0  0  0  0  0  0  0  0  0
   17.8280   -2.4080    2.0630 H   0  0  0  0  0  0  0  0  0  0  0  0
   16.9810   -0.1130    1.8050 H   0  0  0  0  0  0  0  0  0  0  0  0
   17.0750   -0.2780    0.0350 H   0  0  0  0  0  0  0  0  0  0  0  0
   15.4990   -2.1640    0.1270 H   0  0  0  0  0  0  0  0  0  0  0  0
   15.4050   -2.0000    1.8970 H   0  0  0  0  0  0  0  0  0  0  0  0
   14.5580    0.2950    1.6390 H   0  0  0  0  0  0  0  0  0  0  0  0
   14.6520    0.1310   -0.1310 H   0  0  0  0  0  0  0  0  0  0  0  0
   13.0760   -1.7560   -0.0390 H   0  0  0  0  0  0  0  0  0  0  0  0
   12.9830   -1.5910    1.7310 H   0  0  0  0  0  0  0  0  0  0  0  0
   12.1360    0.7040    1.4730 H   0  0  0  0  0  0  0  0  0  0  0  0
   12.2290    0.5390   -0.2970 H   0  0  0  0  0  0  0  0  0  0  0  0
   10.6530   -1.3470   -0.2050 H   0  0  0  0  0  0  0  0  0  0  0  0
   10.5600   -1.1830    1.5650 H   0  0  0  0  0  0  0  0  0  0  0  0
    9.7130    1.1120    1.3070 H   0  0  0  0  0  0  0  0  0  0  0  0
    9.8060    0.9470   -0.4630 H   0  0  0  0  0  0  0  0  0  0  0  0
    8.2310   -0.9390   -0.3710 H   0  0  0  0  0  0  0  0  0  0  0  0
    8.1370   -0.7740    1.3990 H   0  0  0  0  0  0  0  0  0  0  0  0
    7.2900    1.5200    1.1410 H   0  0  0  0  0  0  0  0  0  0  0  0
    7.3840    1.3560   -0.6290 H   0  0  0  0  0  0  0  0  0  0  0  0
    5.8080   -0.5310   -0.5370 H   0  0  0  0  0  0  0  0  0  0  0  0
    5.7140   -0.3660    1.2330 H   0  0  0  0  0  0  0  0  0  0  0  0
    4.8670    1.9290    0.9750 H   0  0  0  0  0  0  0  0  0  0  0  0
    4.9610    1.7640   -0.7950 H   0  0  0  0  0  0  0  0  0  0  0  0
    2.4350    2.5960   -0.1110 O   0  0  0  0  0  0  0  0  0  0  0  0
   -1.1780   -3.4730    0.0000 C   0  0  0  0  0  0  0  0  0  0  0  0
   -1.1770   -4.7600    0.7560 C   0  0  0  0  0  0  0  0  0  0  0  0
   -0.1900   -4.9270    1.1870 H   0  0  0  0  0  0  0  0  0  0  0  0
   -1.4220   -5.5780    0.0790 H   0  0  0  0  0  0  0  0  0  0  0  0
   -1.9190   -4.7130    1.5530 H   0  0  0  0  0  0  0  0  0  0  0  0
   -2.1720   -3.0560   -0.5800 O   0  0  0  0  0  0  0  0  0  0  0  0
  1  2  1  0  0  0  0
  1 11  2  0  0  0  0
  1 14  1  0  0  0  0
  2  3  1  0  0  0  0
  2  4  2  0  0  0  0
  4  5  1  0  0  0  0
  4  6  1  0  0  0  0
  6  7  1  0  0  0  0
  6  8  2  0  0  0  0
  8  9  1  0  0  0  0
  8 11  1  0  0  0  0
  9 10  1  0  0  0  0
  9 61  1  0  0  0  0
 11 12  1  0  0  0  0
 12 13  1  0  0  0  0
 14 15  1  0  0  0  0
 14 60  2  0  0  0  0
 15 16  1  0  0  0  0
 15 17  1  0  0  0  0
 17 18  1  0  0  0  0
 17 58  1  0  0  0  0
 17 59  1  0  0  0  0
 18 19  1  0  0  0  0
 18 56  1  0  0  0  0
 18 57  1  0  0  0  0
 19 20  1  0  0  0  0
 19 54  1  0  0  0  0
 19 55  1  0  0  0  0
 20 21  1  0  0  0  0
 20 52  1  0  0  0  0
 20 53  1  0  0  0  0
 21 22  1  0  0  0  0
 21 50  1  0  0  0  0
 21 51  1  0  0  0  0
 22 23  1  0  0  0  0
 22 48  1  0  0  0  0
 22 49  1  0  0  0  0
 23 24  1  0  0  0  0
 23 46  1  0  0  0  0
 23 47  1  0  0  0  0
 24 25  1  0  0  0  0
 24 44  1  0  0  0  0
 24 45  1  0  0  0  0
 25 26  1  0  0  0  0
 25 42  1  0  0  0  0
 25 43  1  0  0  0  0
 26 27  1  0  0  0  0
 26 40  1  0  0  0  0
 26 41  1  0  0  0  0
 27 28  1  0  0  0  0
 27 38  1  0  0  0  0
 27 39  1  0  0  0  0
 28 29  1  0  0  0  0
 28 36  1  0  0  0  0
 28 37  1  0  0  0  0
 29 30  1  0  0  0  0
 29 34  1  0  0  0  0
 29 35  1  0  0  0  0
 30 31  1  0  0  0  0
 30 32  1  0  0  0  0
 30 33  1  0  0  0  0
 61 62  1  0  0  0  0
 61 66  2  0  0  0  0
 62 63  1  0  0  0  0
 62 64  1  0  0  0  0
 62 65  1  0  0  0  0
M  END
>  <name>
J19

>  <LOGEC50>
-0.89999998

>  <MolecularFormula>
C23H38N2O3

>  <ATCH1>
0.1683

>  <ATCH2>
0.039500002

>  <ATCH3>
-0.0094999997

>  <ATCH4>
-0.1004

>  <ATCH5>
0.0020000001

>  <ATCH6>
-0.2405

>  <ATCH7>
-0.252

>  <ATCH8>
0.41760001

>  <ATCH9>
-0.41350001

>  <ATCH10>
-0.40329999

>  <DIPV_X>
0.95069999

>  <DIPV_Y>
-2.3961999

>  <DIPV_Z>
0.058699999

>  <DIPMOM>
2.5785999

>  <ESDL1>
-0.5643

>  <ESDL2>
-0.83950001

>  <ESDL3>
-1.7833

>  <ESDL4>
-0.28999999

>  <ESDL5>
-1.3583

>  <ESDL6>
-1.4943

>  <ESDL7>
-0.40540001

>  <ESDL8>
-0.48519999

>  <ESDL9>
-0.62059999

>  <ESDL10>
-0.39449999

>  <NSDL1>
6.5450001

>  <NSDL2>
3.6538

>  <NSDL3>
1.0581

>  <NSDL4>
5.1802001

>  <NSDL5>
3.4714

>  <NSDL6>
1.0043

>  <NSDL7>
1.1158

>  <NSDL8>
1.437

>  <NSDL9>
0.484

>  <NSDL10>
0.67360002

>  <VDWVOL>
396.1998

>  <SURF_A>
506.67865

>  <MOFI_X>
793.2323

>  <MOFI_Y>
40830.816

>  <MOFI_Z>
39243.734

>  <PEAX_X>
22.5436

>  <PEAX_Y>
2.2558

>  <PEAX_Z>
3.9061999

>  <MOL_WT>
390.56833

>  <S8_1DX>
10.8214

>  <S8_1DY>
18.744101

>  <S8_1DZ>
6.9791999

>  <S8_1CX>
7.1781001

>  <S8_1CY>
-9.5838003

>  <S8_1CZ>
-1.5017

>  <LOGP>
7.23

>  <M_PNT>
71

>  <SUM_F>
0.28

>  <SUM_R>
-0.25999999

$$$$
E20
  MOE2013           3D

 61 61  0  0  0  0  0  0  0  0999 V2000
    1.2080    0.6970    0.0000 C   0  0  0  0  0  0  0  0  0  0  0  0
    0.0000    1.3950    0.0000 C   0  0  0  0  0  0  0  0  0  0  0  0
    0.0000    2.4820    0.0000 H   0  0  0  0  0  0  0  0  0  0  0  0
   -1.2080    0.6980    0.0000 C   0  0  0  0  0  0  0  0  0  0  0  0
   -1.2080   -0.6980    0.0000 C   0  0  0  0  0  0  0  0  0  0  0  0
   -2.1490   -1.2410    0.0000 H   0  0  0  0  0  0  0  0  0  0  0  0
    0.0000   -1.3950    0.0000 C   0  0  0  0  0  0  0  0  0  0  0  0
    0.0000   -2.4750    0.0000 H   0  0  0  0  0  0  0  0  0  0  0  0
    1.2080   -0.6980    0.0000 C   0  0  0  0  0  0  0  0  0  0  0  0
    2.4000   -1.3860    0.0000 O   0  0  0  0  0  0  0  0  0  0  0  0
    3.1860   -0.8350    0.0000 H   0  0  0  0  0  0  0  0  0  0  0  0
    2.3850    1.3780    0.0000 C   0  0  0  0  0  0  0  0  0  0  0  0
    3.5110    0.6090    0.1310 N   0  0  0  0  0  0  0  0  0  0  0  0
    3.4300   -0.3940    0.2200 H   0  0  0  0  0  0  0  0  0  0  0  0
    4.8060    1.2290    0.1420 C   0  0  0  0  0  0  0  0  0  0  0  0
    5.8690    0.1700    0.2960 C   0  0  0  0  0  0  0  0  0  0  0  0
    7.2290    0.8200    0.3080 C   0  0  0  0  0  0  0  0  0  0  0  0
    8.2920   -0.2390    0.4620 C   0  0  0  0  0  0  0  0  0  0  0  0
    9.6520    0.4120    0.4740 C   0  0  0  0  0  0  0  0  0  0  0  0
   10.7140   -0.6470    0.6280 C   0  0  0  0  0  0  0  0  0  0  0  0
   12.0750    0.0030    0.6400 C   0  0  0  0  0  0  0  0  0  0  0  0
   13.1370   -1.0560    0.7940 C   0  0  0  0  0  0  0  0  0  0  0  0
   14.4970   -0.4050    0.8060 C   0  0  0  0  0  0  0  0  0  0  0  0
   15.5600   -1.4640    0.9600 C   0  0  0  0  0  0  0  0  0  0  0  0
   16.9200   -0.8130    0.9720 C   0  0  0  0  0  0  0  0  0  0  0  0
   17.9830   -1.8720    1.1260 C   0  0  0  0  0  0  0  0  0  0  0  0
   19.3430   -1.2220    1.1380 C   0  0  0  0  0  0  0  0  0  0  0  0
   20.4050   -2.2810    1.2920 C   0  0  0  0  0  0  0  0  0  0  0  0
   21.3890   -1.8100    1.3000 H   0  0  0  0  0  0  0  0  0  0  0  0
   20.3440   -2.9810    0.4590 H   0  0  0  0  0  0  0  0  0  0  0  0
   20.2510   -2.8160    2.2290 H   0  0  0  0  0  0  0  0  0  0  0  0
   19.4040   -0.5220    1.9710 H   0  0  0  0  0  0  0  0  0  0  0  0
   19.4970   -0.6860    0.2010 H   0  0  0  0  0  0  0  0  0  0  0  0
   17.9220   -2.5730    0.2930 H   0  0  0  0  0  0  0  0  0  0  0  0
   17.8280   -2.4080    2.0630 H   0  0  0  0  0  0  0  0  0  0  0  0
   16.9810   -0.1130    1.8050 H   0  0  0  0  0  0  0  0  0  0  0  0
   17.0750   -0.2780    0.0350 H   0  0  0  0  0  0  0  0  0  0  0  0
   15.4990   -2.1640    0.1270 H   0  0  0  0  0  0  0  0  0  0  0  0
   15.4050   -2.0000    1.8970 H   0  0  0  0  0  0  0  0  0  0  0  0
   14.5580    0.2950    1.6390 H   0  0  0  0  0  0  0  0  0  0  0  0
   14.6520    0.1310   -0.1310 H   0  0  0  0  0  0  0  0  0  0  0  0
   13.0760   -1.7560   -0.0390 H   0  0  0  0  0  0  0  0  0  0  0  0
   12.9830   -1.5910    1.7310 H   0  0  0  0  0  0  0  0  0  0  0  0
   12.1360    0.7040    1.4730 H   0  0  0  0  0  0  0  0  0  0  0  0
   12.2290    0.5390   -0.2970 H   0  0  0  0  0  0  0  0  0  0  0  0
   10.6530   -1.3470   -0.2050 H   0  0  0  0  0  0  0  0  0  0  0  0
   10.5600   -1.1830    1.5650 H   0  0  0  0  0  0  0  0  0  0  0  0
    9.7130    1.1120    1.3070 H   0  0  0  0  0  0  0  0  0  0  0  0
    9.8060    0.9470   -0.4630 H   0  0  0  0  0  0  0  0  0  0  0  0
    8.2310   -0.9390   -0.3710 H   0  0  0  0  0  0  0  0  0  0  0  0
    8.1370   -0.7740    1.3990 H   0  0  0  0  0  0  0  0  0  0  0  0
    7.2900    1.5200    1.1410 H   0  0  0  0  0  0  0  0  0  0  0  0
    7.3840    1.3560   -0.6290 H   0  0  0  0  0  0  0  0  0  0  0  0
    5.8080   -0.5310   -0.5370 H   0  0  0  0  0  0  0  0  0  0  0  0
    5.7140   -0.3660    1.2330 H   0  0  0  0  0  0  0  0  0  0  0  0
    4.8670    1.9290    0.9750 H   0  0  0  0  0  0  0  0  0  0  0  0
    4.9610    1.7640   -0.7950 H   0  0  0  0  0  0  0  0  0  0  0  0
    2.4350    2.5960   -0.1110 O   0  0  0  0  0  0  0  0  0  0  0  0
   -2.3860    1.3780    0.0000 N   0  3  0  0  0  0  0  0  0  0  0  0
   -2.4290    2.4190    0.6630 O   0  0  0  0  0  0  0  0  0  0  0  0
   -3.3090    0.8950   -0.6630 O   0  5  0  0  0  0  0  0  0  0  0  0
  1  2  1  0  0  0  0
  1  9  2  0  0  0  0
  1 12  1  0  0  0  0
  2  3  1  0  0  0  0
  2  4  2  0  0  0  0
  4  5  1  0  0  0  0
  4 59  1  0  0  0  0
  5  6  1  0  0  0  0
  5  7  2  0  0  0  0
  7  8  1  0  0  0  0
  7  9  1  0  0  0  0
  9 10  1  0  0  0  0
 10 11  1  0  0  0  0
 12 13  1  0  0  0  0
 12 58  2  0  0  0  0
 13 14  1  0  0  0  0
 13 15  1  0  0  0  0
 15 16  1  0  0  0  0
 15 56  1  0  0  0  0
 15 57  1  0  0  0  0
 16 17  1  0  0  0  0
 16 54  1  0  0  0  0
 16 55  1  0  0  0  0
 17 18  1  0  0  0  0
 17 52  1  0  0  0  0
 17 53  1  0  0  0  0
 18 19  1  0  0  0  0
 18 50  1  0  0  0  0
 18 51  1  0  0  0  0
 19 20  1  0  0  0  0
 19 48  1  0  0  0  0
 19 49  1  0  0  0  0
 20 21  1  0  0  0  0
 20 46  1  0  0  0  0
 20 47  1  0  0  0  0
 21 22  1  0  0  0  0
 21 44  1  0  0  0  0
 21 45  1  0  0  0  0
 22 23  1  0  0  0  0
 22 42  1  0  0  0  0
 22 43  1  0  0  0  0
 23 24  1  0  0  0  0
 23 40  1  0  0  0  0
 23 41  1  0  0  0  0
 24 25  1  0  0  0  0
 24 38  1  0  0  0  0
 24 39  1  0  0  0  0
 25 26  1  0  0  0  0
 25 36  1  0  0  0  0
 25 37  1  0  0  0  0
 26 27  1  0  0  0  0
 26 34  1  0  0  0  0
 26 35  1  0  0  0  0
 27 28  1  0  0  0  0
 27 32  1  0  0  0  0
 27 33  1  0  0  0  0
 28 29  1  0  0  0  0
 28 30  1  0  0  0  0
 28 31  1  0  0  0  0
 59 60  2  0  0  0  0
 59 61  1  0  0  0  0
M  CHG  1  59   1
M  CHG  1  61  -1
M  END
>  <name>
E20

>  <LOGEC50>
0.88999999

>  <MolecularFormula>
C21H34O4N2

>  <ATCH1>
0.25619999

>  <ATCH2>
-0.1471

>  <ATCH3>
0.089500003

>  <ATCH4>
-0.1628

>  <ATCH5>
0.1108

>  <ATCH6>
-0.28080001

>  <ATCH7>
-0.21250001

>  <ATCH8>
0.4181

>  <ATCH9>
-0.40630001

>  <ATCH10>
-0.3998

>  <DIPV_X>
3.4223001

>  <DIPV_Y>
-0.38260001

>  <DIPV_Z>
-0.0241

>  <DIPMOM>
3.4437001

>  <ESDL1>
-0.51279998

>  <ESDL2>
-0.54900002

>  <ESDL3>
-0.81489998

>  <ESDL4>
-0.39950001

>  <ESDL5>
-0.95359999

>  <ESDL6>
-0.65310001

>  <ESDL7>
-0.39039999

>  <ESDL8>
-0.2376

>  <ESDL9>
-0.43869999

>  <ESDL10>
-0.32769999

>  <NSDL1>
5.8768001

>  <NSDL2>
3.8046999

>  <NSDL3>
1.1287

>  <NSDL4>
3.7149

>  <NSDL5>
1.3436

>  <NSDL6>
1.4154

>  <NSDL7>
1.0611

>  <NSDL8>
2.1902001

>  <NSDL9>
0.80489999

>  <NSDL10>
0.85519999

>  <VDWVOL>
340.19989

>  <SURF_A>
436.40833

>  <MOFI_X>
1650.2062

>  <MOFI_Y>
25060.273

>  <MOFI_Z>
23662.135

>  <PEAX_X>
18.336599

>  <PEAX_Y>
1.3418

>  <PEAX_Z>
4.6662998

>  <MOL_WT>
350.45987

>  <S8_1DX>
10.0295

>  <S8_1DY>
16.4804

>  <S8_1DZ>
7.1093998

>  <S8_1CX>
6.7638998

>  <S8_1CY>
-8.4629002

>  <S8_1CZ>
-1.4630001

>  <LOGP>
8.4659996

>  <M_PNT>
90

>  <SUM_F>
0.67000002

>  <SUM_R>
0.16

$$$$
L21
  MOE2013           3D

 61 61  0  0  0  0  0  0  0  0999 V2000
    1.2080    0.6970    0.0000 C   0  0  0  0  0  0  0  0  0  0  0  0
    0.0000    1.3950    0.0000 C   0  0  0  0  0  0  0  0  0  0  0  0
    0.0000    2.4820    0.0000 H   0  0  0  0  0  0  0  0  0  0  0  0
   -1.2080    0.6980    0.0000 C   0  0  0  0  0  0  0  0  0  0  0  0
   -2.1430    1.2380    0.0000 H   0  0  0  0  0  0  0  0  0  0  0  0
   -1.2080   -0.6980    0.0000 C   0  0  0  0  0  0  0  0  0  0  0  0
   -2.1490   -1.2410    0.0000 H   0  0  0  0  0  0  0  0  0  0  0  0
    0.0000   -1.3950    0.0000 C   0  0  0  0  0  0  0  0  0  0  0  0
    1.2080   -0.6980    0.0000 C   0  0  0  0  0  0  0  0  0  0  0  0
    2.4000   -1.3860    0.0000 O   0  0  0  0  0  0  0  0  0  0  0  0
    3.1860   -0.8350    0.0000 H   0  0  0  0  0  0  0  0  0  0  0  0
    2.3850    1.3780    0.0000 C   0  0  0  0  0  0  0  0  0  0  0  0
    3.5110    0.6090    0.1310 N   0  0  0  0  0  0  0  0  0  0  0  0
    3.4300   -0.3940    0.2200 H   0  0  0  0  0  0  0  0  0  0  0  0
    4.8060    1.2290    0.1420 C   0  0  0  0  0  0  0  0  0  0  0  0
    5.8690    0.1700    0.2960 C   0  0  0  0  0  0  0  0  0  0  0  0
    7.2290    0.8200    0.3080 C   0  0  0  0  0  0  0  0  0  0  0  0
    8.2920   -0.2390    0.4620 C   0  0  0  0  0  0  0  0  0  0  0  0
    9.6520    0.4120    0.4740 C   0  0  0  0  0  0  0  0  0  0  0  0
   10.7140   -0.6470    0.6280 C   0  0  0  0  0  0  0  0  0  0  0  0
   12.0750    0.0030    0.6400 C   0  0  0  0  0  0  0  0  0  0  0  0
   13.1370   -1.0560    0.7940 C   0  0  0  0  0  0  0  0  0  0  0  0
   14.4970   -0.4050    0.8060 C   0  0  0  0  0  0  0  0  0  0  0  0
   15.5600   -1.4640    0.9600 C   0  0  0  0  0  0  0  0  0  0  0  0
   16.9200   -0.8130    0.9720 C   0  0  0  0  0  0  0  0  0  0  0  0
   17.9830   -1.8720    1.1260 C   0  0  0  0  0  0  0  0  0  0  0  0
   19.3430   -1.2220    1.1380 C   0  0  0  0  0  0  0  0  0  0  0  0
   20.4050   -2.2810    1.2920 C   0  0  0  0  0  0  0  0  0  0  0  0
   21.3890   -1.8100    1.3000 H   0  0  0  0  0  0  0  0  0  0  0  0
   20.3440   -2.9810    0.4590 H   0  0  0  0  0  0  0  0  0  0  0  0
   20.2510   -2.8160    2.2290 H   0  0  0  0  0  0  0  0  0  0  0  0
   19.4040   -0.5220    1.9710 H   0  0  0  0  0  0  0  0  0  0  0  0
   19.4970   -0.6860    0.2010 H   0  0  0  0  0  0  0  0  0  0  0  0
   17.9220   -2.5730    0.2930 H   0  0  0  0  0  0  0  0  0  0  0  0
   17.8280   -2.4080    2.0630 H   0  0  0  0  0  0  0  0  0  0  0  0
   16.9810   -0.1130    1.8050 H   0  0  0  0  0  0  0  0  0  0  0  0
   17.0750   -0.2780    0.0350 H   0  0  0  0  0  0  0  0  0  0  0  0
   15.4990   -2.1640    0.1270 H   0  0  0  0  0  0  0  0  0  0  0  0
   15.4050   -2.0000    1.8970 H   0  0  0  0  0  0  0  0  0  0  0  0
   14.5580    0.2950    1.6390 H   0  0  0  0  0  0  0  0  0  0  0  0
   14.6520    0.1310   -0.1310 H   0  0  0  0  0  0  0  0  0  0  0  0
   13.0760   -1.7560   -0.0390 H   0  0  0  0  0  0  0  0  0  0  0  0
   12.9830   -1.5910    1.7310 H   0  0  0  0  0  0  0  0  0  0  0  0
   12.1360    0.7040    1.4730 H   0  0  0  0  0  0  0  0  0  0  0  0
   12.2290    0.5390   -0.2970 H   0  0  0  0  0  0  0  0  0  0  0  0
   10.6530   -1.3470   -0.2050 H   0  0  0  0  0  0  0  0  0  0  0  0
   10.5600   -1.1830    1.5650 H   0  0  0  0  0  0  0  0  0  0  0  0
    9.7130    1.1120    1.3070 H   0  0  0  0  0  0  0  0  0  0  0  0
    9.8060    0.9470   -0.4630 H   0  0  0  0  0  0  0  0  0  0  0  0
    8.2310   -0.9390   -0.3710 H   0  0  0  0  0  0  0  0  0  0  0  0
    8.1370   -0.7740    1.3990 H   0  0  0  0  0  0  0  0  0  0  0  0
    7.2900    1.5200    1.1410 H   0  0  0  0  0  0  0  0  0  0  0  0
    7.3840    1.3560   -0.6290 H   0  0  0  0  0  0  0  0  0  0  0  0
    5.8080   -0.5310   -0.5370 H   0  0  0  0  0  0  0  0  0  0  0  0
    5.7140   -0.3660    1.2330 H   0  0  0  0  0  0  0  0  0  0  0  0
    4.8670    1.9290    0.9750 H   0  0  0  0  0  0  0  0  0  0  0  0
    4.9610    1.7640   -0.7950 H   0  0  0  0  0  0  0  0  0  0  0  0
    2.4350    2.5960   -0.1110 O   0  0  0  0  0  0  0  0  0  0  0  0
    0.0000   -2.7550    0.0000 N   0  3  0  0  0  0  0  0  0  0  0  0
    0.3410   -3.3130    1.0480 O   0  0  0  0  0  0  0  0  0  0  0  0
   -0.3410   -3.3130   -1.0480 O   0  5  0  0  0  0  0  0  0  0  0  0
  1  2  1  0  0  0  0
  1  9  2  0  0  0  0
  1 12  1  0  0  0  0
  2  3  1  0  0  0  0
  2  4  2  0  0  0  0
  4  5  1  0  0  0  0
  4  6  1  0  0  0  0
  6  7  1  0  0  0  0
  6  8  2  0  0  0  0
  8  9  1  0  0  0  0
  8 59  1  0  0  0  0
  9 10  1  0  0  0  0
 10 11  1  0  0  0  0
 12 13  1  0  0  0  0
 12 58  2  0  0  0  0
 13 14  1  0  0  0  0
 13 15  1  0  0  0  0
 15 16  1  0  0  0  0
 15 56  1  0  0  0  0
 15 57  1  0  0  0  0
 16 17  1  0  0  0  0
 16 54  1  0  0  0  0
 16 55  1  0  0  0  0
 17 18  1  0  0  0  0
 17 52  1  0  0  0  0
 17 53  1  0  0  0  0
 18 19  1  0  0  0  0
 18 50  1  0  0  0  0
 18 51  1  0  0  0  0
 19 20  1  0  0  0  0
 19 48  1  0  0  0  0
 19 49  1  0  0  0  0
 20 21  1  0  0  0  0
 20 46  1  0  0  0  0
 20 47  1  0  0  0  0
 21 22  1  0  0  0  0
 21 44  1  0  0  0  0
 21 45  1  0  0  0  0
 22 23  1  0  0  0  0
 22 42  1  0  0  0  0
 22 43  1  0  0  0  0
 23 24  1  0  0  0  0
 23 40  1  0  0  0  0
 23 41  1  0  0  0  0
 24 25  1  0  0  0  0
 24 38  1  0  0  0  0
 24 39  1  0  0  0  0
 25 26  1  0  0  0  0
 25 36  1  0  0  0  0
 25 37  1  0  0  0  0
 26 27  1  0  0  0  0
 26 34  1  0  0  0  0
 26 35  1  0  0  0  0
 27 28  1  0  0  0  0
 27 32  1  0  0  0  0
 27 33  1  0  0  0  0
 28 29  1  0  0  0  0
 28 30  1  0  0  0  0
 28 31  1  0  0  0  0
 59 60  2  0  0  0  0
 59 61  1  0  0  0  0
M  CHG  1  59   1
M  CHG  1  61  -1
M  END
>  <name>
L21

>  <LOGEC50>
0.81999999

>  <MolecularFormula>
C21H34O4N2

>  <ATCH1>
0.2791

>  <ATCH2>
-0.1652

>  <ATCH3>
0.097000003

>  <ATCH4>
-0.148

>  <ATCH5>
0.083999999

>  <ATCH6>
-0.2854

>  <ATCH7>
-0.18780001

>  <ATCH8>
0.41780001

>  <ATCH9>
-0.4012

>  <ATCH10>
-0.40149999

>  <DIPV_X>
-1.1027

>  <DIPV_Y>
-8.9307003

>  <DIPV_Z>
-0.031599998

>  <DIPMOM>
8.9986

>  <ESDL1>
-1.2692

>  <ESDL2>
-0.43259999

>  <ESDL3>
-0.84189999

>  <ESDL4>
-0.66600001

>  <ESDL5>
-0.60420001

>  <ESDL6>
-0.66390002

>  <ESDL7>
-0.52819997

>  <ESDL8>
-0.25299999

>  <ESDL9>
-0.44800001

>  <ESDL10>
-0.32960001

>  <NSDL1>
0.9932

>  <NSDL2>
1.9648

>  <NSDL3>
1.2609

>  <NSDL4>
2.5869999

>  <NSDL5>
2.7579

>  <NSDL6>
1.2959

>  <NSDL7>
0.35710001

>  <NSDL8>
2.1162

>  <NSDL9>
0.7561

>  <NSDL10>
0.84969997

>  <VDWVOL>
372.59979

>  <SURF_A>
477.42938

>  <MOFI_X>
765.72479

>  <MOFI_Y>
37097.852

>  <MOFI_Z>
36119.48

>  <PEAX_X>
21.8901

>  <PEAX_Y>
1.1859

>  <PEAX_Z>
3.3963001

>  <MOL_WT>
378.51382

>  <S8_1DX>
10.7617

>  <S8_1DY>
18.8944

>  <S8_1DZ>
7.2670002

>  <S8_1CX>
30.9758

>  <S8_1CY>
16.4613

>  <S8_1CZ>
-1.6727999

>  <LOGP>
8.4700003

>  <M_PNT>
67

>  <SUM_F>
0.67000002

>  <SUM_R>
0.16

$$$$
L22
  MOE2013           3D

 61 61  0  0  0  0  0  0  0  0999 V2000
    1.2080    0.6970    0.0000 C   0  0  0  0  0  0  0  0  0  0  0  0
    0.0000    1.3950    0.0000 C   0  0  0  0  0  0  0  0  0  0  0  0
    0.0000    2.4820    0.0000 H   0  0  0  0  0  0  0  0  0  0  0  0
   -1.2080    0.6980    0.0000 C   0  0  0  0  0  0  0  0  0  0  0  0
   -2.6980    1.5590    0.0000 Cl  0  0  0  0  0  0  0  0  0  0  0  0
   -1.2080   -0.6980    0.0000 C   0  0  0  0  0  0  0  0  0  0  0  0
   -2.1490   -1.2410    0.0000 H   0  0  0  0  0  0  0  0  0  0  0  0
    0.0000   -1.3950    0.0000 C   0  0  0  0  0  0  0  0  0  0  0  0
    1.2080   -0.6980    0.0000 C   0  0  0  0  0  0  0  0  0  0  0  0
    2.4000   -1.3860    0.0000 O   0  0  0  0  0  0  0  0  0  0  0  0
    3.1860   -0.8350    0.0000 H   0  0  0  0  0  0  0  0  0  0  0  0
    2.3850    1.3780    0.0000 C   0  0  0  0  0  0  0  0  0  0  0  0
    3.5110    0.6090    0.1310 N   0  0  0  0  0  0  0  0  0  0  0  0
    3.4300   -0.3940    0.2200 H   0  0  0  0  0  0  0  0  0  0  0  0
    4.8060    1.2290    0.1420 C   0  0  0  0  0  0  0  0  0  0  0  0
    5.8690    0.1700    0.2960 C   0  0  0  0  0  0  0  0  0  0  0  0
    7.2290    0.8200    0.3080 C   0  0  0  0  0  0  0  0  0  0  0  0
    8.2920   -0.2390    0.4620 C   0  0  0  0  0  0  0  0  0  0  0  0
    9.6520    0.4120    0.4740 C   0  0  0  0  0  0  0  0  0  0  0  0
   10.7140   -0.6470    0.6280 C   0  0  0  0  0  0  0  0  0  0  0  0
   12.0750    0.0030    0.6400 C   0  0  0  0  0  0  0  0  0  0  0  0
   13.1370   -1.0560    0.7940 C   0  0  0  0  0  0  0  0  0  0  0  0
   14.4970   -0.4050    0.8060 C   0  0  0  0  0  0  0  0  0  0  0  0
   15.5600   -1.4640    0.9600 C   0  0  0  0  0  0  0  0  0  0  0  0
   16.9200   -0.8130    0.9720 C   0  0  0  0  0  0  0  0  0  0  0  0
   17.9830   -1.8720    1.1260 C   0  0  0  0  0  0  0  0  0  0  0  0
   19.3430   -1.2220    1.1380 C   0  0  0  0  0  0  0  0  0  0  0  0
   20.4050   -2.2810    1.2920 C   0  0  0  0  0  0  0  0  0  0  0  0
   21.3890   -1.8100    1.3000 H   0  0  0  0  0  0  0  0  0  0  0  0
   20.3440   -2.9810    0.4590 H   0  0  0  0  0  0  0  0  0  0  0  0
   20.2510   -2.8160    2.2290 H   0  0  0  0  0  0  0  0  0  0  0  0
   19.4040   -0.5220    1.9710 H   0  0  0  0  0  0  0  0  0  0  0  0
   19.4970   -0.6860    0.2010 H   0  0  0  0  0  0  0  0  0  0  0  0
   17.9220   -2.5730    0.2930 H   0  0  0  0  0  0  0  0  0  0  0  0
   17.8280   -2.4080    2.0630 H   0  0  0  0  0  0  0  0  0  0  0  0
   16.9810   -0.1130    1.8050 H   0  0  0  0  0  0  0  0  0  0  0  0
   17.0750   -0.2780    0.0350 H   0  0  0  0  0  0  0  0  0  0  0  0
   15.4990   -2.1640    0.1270 H   0  0  0  0  0  0  0  0  0  0  0  0
   15.4050   -2.0000    1.8970 H   0  0  0  0  0  0  0  0  0  0  0  0
   14.5580    0.2950    1.6390 H   0  0  0  0  0  0  0  0  0  0  0  0
   14.6520    0.1310   -0.1310 H   0  0  0  0  0  0  0  0  0  0  0  0
   13.0760   -1.7560   -0.0390 H   0  0  0  0  0  0  0  0  0  0  0  0
   12.9830   -1.5910    1.7310 H   0  0  0  0  0  0  0  0  0  0  0  0
   12.1360    0.7040    1.4730 H   0  0  0  0  0  0  0  0  0  0  0  0
   12.2290    0.5390   -0.2970 H   0  0  0  0  0  0  0  0  0  0  0  0
   10.6530   -1.3470   -0.2050 H   0  0  0  0  0  0  0  0  0  0  0  0
   10.5600   -1.1830    1.5650 H   0  0  0  0  0  0  0  0  0  0  0  0
    9.7130    1.1120    1.3070 H   0  0  0  0  0  0  0  0  0  0  0  0
    9.8060    0.9470   -0.4630 H   0  0  0  0  0  0  0  0  0  0  0  0
    8.2310   -0.9390   -0.3710 H   0  0  0  0  0  0  0  0  0  0  0  0
    8.1370   -0.7740    1.3990 H   0  0  0  0  0  0  0  0  0  0  0  0
    7.2900    1.5200    1.1410 H   0  0  0  0  0  0  0  0  0  0  0  0
    7.3840    1.3560   -0.6290 H   0  0  0  0  0  0  0  0  0  0  0  0
    5.8080   -0.5310   -0.5370 H   0  0  0  0  0  0  0  0  0  0  0  0
    5.7140   -0.3660    1.2330 H   0  0  0  0  0  0  0  0  0  0  0  0
    4.8670    1.9290    0.9750 H   0  0  0  0  0  0  0  0  0  0  0  0
    4.9610    1.7640   -0.7950 H   0  0  0  0  0  0  0  0  0  0  0  0
    2.4350    2.5960   -0.1110 O   0  0  0  0  0  0  0  0  0  0  0  0
    0.0000   -2.7550    0.0000 N   0  3  0  0  0  0  0  0  0  0  0  0
    0.3410   -3.3130    1.0480 O   0  0  0  0  0  0  0  0  0  0  0  0
   -0.3410   -3.3130   -1.0480 O   0  5  0  0  0  0  0  0  0  0  0  0
  1  2  1  0  0  0  0
  1  9  2  0  0  0  0
  1 12  1  0  0  0  0
  2  3  1  0  0  0  0
  2  4  2  0  0  0  0
  4  5  1  0  0  0  0
  4  6  1  0  0  0  0
  6  7  1  0  0  0  0
  6  8  2  0  0  0  0
  8  9  1  0  0  0  0
  8 59  1  0  0  0  0
  9 10  1  0  0  0  0
 10 11  1  0  0  0  0
 12 13  1  0  0  0  0
 12 58  2  0  0  0  0
 13 14  1  0  0  0  0
 13 15  1  0  0  0  0
 15 16  1  0  0  0  0
 15 56  1  0  0  0  0
 15 57  1  0  0  0  0
 16 17  1  0  0  0  0
 16 54  1  0  0  0  0
 16 55  1  0  0  0  0
 17 18  1  0  0  0  0
 17 52  1  0  0  0  0
 17 53  1  0  0  0  0
 18 19  1  0  0  0  0
 18 50  1  0  0  0  0
 18 51  1  0  0  0  0
 19 20  1  0  0  0  0
 19 48  1  0  0  0  0
 19 49  1  0  0  0  0
 20 21  1  0  0  0  0
 20 46  1  0  0  0  0
 20 47  1  0  0  0  0
 21 22  1  0  0  0  0
 21 44  1  0  0  0  0
 21 45  1  0  0  0  0
 22 23  1  0  0  0  0
 22 42  1  0  0  0  0
 22 43  1  0  0  0  0
 23 24  1  0  0  0  0
 23 40  1  0  0  0  0
 23 41  1  0  0  0  0
 24 25  1  0  0  0  0
 24 38  1  0  0  0  0
 24 39  1  0  0  0  0
 25 26  1  0  0  0  0
 25 36  1  0  0  0  0
 25 37  1  0  0  0  0
 26 27  1  0  0  0  0
 26 34  1  0  0  0  0
 26 35  1  0  0  0  0
 27 28  1  0  0  0  0
 27 32  1  0  0  0  0
 27 33  1  0  0  0  0
 28 29  1  0  0  0  0
 28 30  1  0  0  0  0
 28 31  1  0  0  0  0
 59 60  2  0  0  0  0
 59 61  1  0  0  0  0
M  CHG  1  59   1
M  CHG  1  61  -1
M  END
>  <name>
L22

>  <LOGEC50>
1.36

>  <MolecularFormula>
C21H33ClO4N2

>  <ATCH1>
0.28380001

>  <ATCH2>
-0.1612

>  <ATCH3>
0.1127

>  <ATCH4>
-0.093800001

>  <ATCH5>
0.0995

>  <ATCH6>
-0.28080001

>  <ATCH7>
-0.18179999

>  <ATCH8>
0.41780001

>  <ATCH9>
-0.3985

>  <ATCH10>
-0.39930001

>  <DIPV_X>
0.42140001

>  <DIPV_Y>
-8.0768995

>  <DIPV_Z>
-0.0305

>  <DIPMOM>
8.0880003

>  <ESDL1>
-0.94950002

>  <ESDL2>
-0.73799998

>  <ESDL3>
-1.0875

>  <ESDL4>
-2.4800999

>  <ESDL5>
-3.0831001

>  <ESDL6>
-1.1205

>  <ESDL7>
-0.4709

>  <ESDL8>
-0.79140002

>  <ESDL9>
-0.73839998

>  <ESDL10>
-0.43239999

>  <NSDL1>
1.1258

>  <NSDL2>
1.941

>  <NSDL3>
1.226

>  <NSDL4>
4.6949

>  <NSDL5>
1.0373

>  <NSDL6>
1.2497

>  <NSDL7>
0.3897

>  <NSDL8>
2.0260999

>  <NSDL9>
0.6627

>  <NSDL10>
0.85110003

>  <VDWVOL>
387.09976

>  <SURF_A>
493.83658

>  <MOFI_X>
1628.6172

>  <MOFI_Y>
39861.398

>  <MOFI_Z>
38461.703

>  <PEAX_X>
21.5989

>  <PEAX_Y>
1.1799999

>  <PEAX_Z>
4.2919002

>  <MOL_WT>
412.95883

>  <S8_1DX>
10.7824

>  <S8_1DY>
18.953199

>  <S8_1DZ>
7.2213001

>  <S8_1CX>
31.319099

>  <S8_1CY>
16.5005

>  <S8_1CZ>
-1.6306

>  <LOGP>
9.3000002

>  <M_PNT>
81

>  <SUM_F>
1.08

>  <SUM_R>
0.0099999998

$$$$
D23
  MOE2013           3D

 41 42  0  0  0  0  0  0  0  0999 V2000
    1.2080    0.6970    0.0000 C   0  0  0  0  0  0  0  0  0  0  0  0
    0.0000    1.3950    0.0000 C   0  0  0  0  0  0  0  0  0  0  0  0
    0.0000    2.4820    0.0000 H   0  0  0  0  0  0  0  0  0  0  0  0
   -1.2080    0.6980    0.0000 C   0  0  0  0  0  0  0  0  0  0  0  0
   -1.2080   -0.6980    0.0000 C   0  0  0  0  0  0  0  0  0  0  0  0
   -2.1490   -1.2410    0.0000 H   0  0  0  0  0  0  0  0  0  0  0  0
    0.0000   -1.3950    0.0000 C   0  0  0  0  0  0  0  0  0  0  0  0
    0.0000   -2.4750    0.0000 H   0  0  0  0  0  0  0  0  0  0  0  0
    1.2080   -0.6980    0.0000 C   0  0  0  0  0  0  0  0  0  0  0  0
    2.4000   -1.3860    0.0000 O   0  0  0  0  0  0  0  0  0  0  0  0
    3.1860   -0.8350    0.0000 H   0  0  0  0  0  0  0  0  0  0  0  0
    2.3850    1.3780    0.0000 C   0  0  0  0  0  0  0  0  0  0  0  0
    3.5110    0.6090    0.1310 N   0  0  0  0  0  0  0  0  0  0  0  0
    3.4300   -0.3940    0.2200 H   0  0  0  0  0  0  0  0  0  0  0  0
    2.4350    2.5960   -0.1110 O   0  0  0  0  0  0  0  0  0  0  0  0
   -2.3860    1.3780    0.0000 N   0  3  0  0  0  0  0  0  0  0  0  0
   -2.4290    2.4190    0.6630 O   0  0  0  0  0  0  0  0  0  0  0  0
   -3.3090    0.8950   -0.6630 O   0  5  0  0  0  0  0  0  0  0  0  0
    7.2550    2.3990    0.1630 C   0  0  0  0  0  0  0  0  0  0  0  0
    8.5960    3.0390    0.1750 C   0  0  0  0  0  0  0  0  0  0  0  0
    9.4900    2.3160    1.1500 C   0  0  0  0  0  0  0  0  0  0  0  0
   10.4730    2.7850    1.1590 H   0  0  0  0  0  0  0  0  0  0  0  0
    9.5880    1.2730    0.8480 H   0  0  0  0  0  0  0  0  0  0  0  0
    9.0540    2.3660    2.1480 H   0  0  0  0  0  0  0  0  0  0  0  0
    8.4600    4.4820    0.5920 C   0  0  0  0  0  0  0  0  0  0  0  0
    9.4440    4.9520    0.6010 H   0  0  0  0  0  0  0  0  0  0  0  0
    8.0250    4.5320    1.5900 H   0  0  0  0  0  0  0  0  0  0  0  0
    7.8140    5.0050   -0.1130 H   0  0  0  0  0  0  0  0  0  0  0  0
    9.1980    2.9700   -1.2060 C   0  0  0  0  0  0  0  0  0  0  0  0
   10.1820    3.4400   -1.1970 H   0  0  0  0  0  0  0  0  0  0  0  0
    8.5520    3.4930   -1.9110 H   0  0  0  0  0  0  0  0  0  0  0  0
    9.2960    1.9270   -1.5080 H   0  0  0  0  0  0  0  0  0  0  0  0
    7.0010    1.2990    0.9830 C   0  0  0  0  0  0  0  0  0  0  0  0
    7.7830    0.9120    1.6300 H   0  0  0  0  0  0  0  0  0  0  0  0
    5.7430    0.6980    0.9730 C   0  0  0  0  0  0  0  0  0  0  0  0
    5.5440   -0.1590    1.6110 H   0  0  0  0  0  0  0  0  0  0  0  0
    4.7380    1.1960    0.1410 C   0  0  0  0  0  0  0  0  0  0  0  0
    4.9930    2.2950   -0.6780 C   0  0  0  0  0  0  0  0  0  0  0  0
    4.2100    2.6830   -1.3260 H   0  0  0  0  0  0  0  0  0  0  0  0
    6.2510    2.8970   -0.6680 C   0  0  0  0  0  0  0  0  0  0  0  0
    6.4490    3.7530   -1.3070 H   0  0  0  0  0  0  0  0  0  0  0  0
  1  2  1  0  0  0  0
  1  9  2  0  0  0  0
  1 12  1  0  0  0  0
  2  3  1  0  0  0  0
  2  4  2  0  0  0  0
  4  5  1  0  0  0  0
  4 16  1  0  0  0  0
  5  6  1  0  0  0  0
  5  7  2  0  0  0  0
  7  8  1  0  0  0  0
  7  9  1  0  0  0  0
  9 10  1  0  0  0  0
 10 11  1  0  0  0  0
 12 13  1  0  0  0  0
 12 15  2  0  0  0  0
 13 14  1  0  0  0  0
 13 37  1  0  0  0  0
 16 17  2  0  0  0  0
 16 18  1  0  0  0  0
 19 20  1  0  0  0  0
 19 33  1  0  0  0  0
 19 40  2  0  0  0  0
 20 21  1  0  0  0  0
 20 25  1  0  0  0  0
 20 29  1  0  0  0  0
 21 22  1  0  0  0  0
 21 23  1  0  0  0  0
 21 24  1  0  0  0  0
 25 26  1  0  0  0  0
 25 27  1  0  0  0  0
 25 28  1  0  0  0  0
 29 30  1  0  0  0  0
 29 31  1  0  0  0  0
 29 32  1  0  0  0  0
 33 34  1  0  0  0  0
 33 35  2  0  0  0  0
 35 36  1  0  0  0  0
 35 37  1  0  0  0  0
 37 38  2  0  0  0  0
 38 39  1  0  0  0  0
 38 40  1  0  0  0  0
 40 41  1  0  0  0  0
M  CHG  1  16   1
M  CHG  1  18  -1
M  END
>  <name>
D23

>  <LOGEC50>
0.23

>  <MolecularFormula>
C17H18O4N2

>  <ATCH1>
0.25889999

>  <ATCH2>
-0.1469

>  <ATCH3>
0.090599999

>  <ATCH4>
-0.1619

>  <ATCH5>
0.1104

>  <ATCH6>
-0.2877

>  <ATCH7>
-0.21349999

>  <ATCH8>
0.42570001

>  <ATCH9>
-0.3971

>  <ATCH10>
-0.32429999

>  <DIPV_X>
3.4331999

>  <DIPV_Y>
0.1762

>  <DIPV_Z>
0.24529999

>  <DIPMOM>
3.4463999

>  <ESDL1>
-0.74239999

>  <ESDL2>
-1.0745

>  <ESDL3>
-1.0148

>  <ESDL4>
-0.43340001

>  <ESDL5>
-1.0362999

>  <ESDL6>
-0.68879998

>  <ESDL7>
-0.42429999

>  <ESDL8>
-1.0779001

>  <ESDL9>
-0.8538

>  <ESDL10>
-0.336

>  <NSDL1>
6.6018

>  <NSDL2>
3.5615001

>  <NSDL3>
1.0783

>  <NSDL4>
4.3860002

>  <NSDL5>
1.3004

>  <NSDL6>
1.8484

>  <NSDL7>
1.1676

>  <NSDL8>
1.8164001

>  <NSDL9>
0.58029997

>  <NSDL10>
1.0563

>  <VDWVOL>
280.40002

>  <SURF_A>
330.78622

>  <MOFI_X>
1422.5823

>  <MOFI_Y>
10025.04

>  <MOFI_Z>
8799.7803

>  <PEAX_X>
11.7708

>  <PEAX_Y>
1.2534

>  <PEAX_Z>
4.5914998

>  <MOL_WT>
314.34192

>  <S8_1DX>
9.2551003

>  <S8_1DY>
8.3913002

>  <S8_1DZ>
5.2754002

>  <S8_1CX>
6.3404999

>  <S8_1CY>
-4.3674002

>  <S8_1CZ>
1.1964

>  <LOGP>
5.3540001

>  <M_PNT>
227

>  <SUM_F>
0.67000002

>  <SUM_R>
0.16

$$$$
E24
  MOE2013           3D

 55 55  0  0  0  0  0  0  0  0999 V2000
    1.2080    0.6970    0.0000 C   0  0  0  0  0  0  0  0  0  0  0  0
    0.0000    1.3950    0.0000 C   0  0  0  0  0  0  0  0  0  0  0  0
    0.0000    2.4820    0.0000 H   0  0  0  0  0  0  0  0  0  0  0  0
   -1.2080    0.6980    0.0000 C   0  0  0  0  0  0  0  0  0  0  0  0
   -1.2080   -0.6980    0.0000 C   0  0  0  0  0  0  0  0  0  0  0  0
   -2.1490   -1.2410    0.0000 H   0  0  0  0  0  0  0  0  0  0  0  0
    0.0000   -1.3950    0.0000 C   0  0  0  0  0  0  0  0  0  0  0  0
    0.0000   -2.4750    0.0000 H   0  0  0  0  0  0  0  0  0  0  0  0
    1.2080   -0.6980    0.0000 C   0  0  0  0  0  0  0  0  0  0  0  0
    2.4000   -1.3860    0.0000 O   0  0  0  0  0  0  0  0  0  0  0  0
    3.1860   -0.8350    0.0000 H   0  0  0  0  0  0  0  0  0  0  0  0
    2.3850    1.3780    0.0000 C   0  0  0  0  0  0  0  0  0  0  0  0
    3.5110    0.6090    0.1310 N   0  0  0  0  0  0  0  0  0  0  0  0
    3.4300   -0.3940    0.2200 H   0  0  0  0  0  0  0  0  0  0  0  0
    4.8060    1.2290    0.1420 C   0  0  0  0  0  0  0  0  0  0  0  0
    5.8690    0.1700    0.2960 C   0  0  0  0  0  0  0  0  0  0  0  0
    7.2290    0.8200    0.3080 C   0  0  0  0  0  0  0  0  0  0  0  0
    8.2920   -0.2390    0.4620 C   0  0  0  0  0  0  0  0  0  0  0  0
    9.6520    0.4120    0.4740 C   0  0  0  0  0  0  0  0  0  0  0  0
   10.7140   -0.6470    0.6280 C   0  0  0  0  0  0  0  0  0  0  0  0
   12.0750    0.0030    0.6400 C   0  0  0  0  0  0  0  0  0  0  0  0
   13.1370   -1.0560    0.7940 C   0  0  0  0  0  0  0  0  0  0  0  0
   14.4970   -0.4050    0.8060 C   0  0  0  0  0  0  0  0  0  0  0  0
   15.5600   -1.4640    0.9600 C   0  0  0  0  0  0  0  0  0  0  0  0
   16.9200   -0.8130    0.9720 C   0  0  0  0  0  0  0  0  0  0  0  0
   17.9830   -1.8720    1.1260 C   0  0  0  0  0  0  0  0  0  0  0  0
   18.9660   -1.4020    1.1340 H   0  0  0  0  0  0  0  0  0  0  0  0
   17.9220   -2.5730    0.2930 H   0  0  0  0  0  0  0  0  0  0  0  0
   17.8280   -2.4080    2.0630 H   0  0  0  0  0  0  0  0  0  0  0  0
   16.9810   -0.1130    1.8050 H   0  0  0  0  0  0  0  0  0  0  0  0
   17.0750   -0.2780    0.0350 H   0  0  0  0  0  0  0  0  0  0  0  0
   15.4990   -2.1640    0.1270 H   0  0  0  0  0  0  0  0  0  0  0  0
   15.4050   -2.0000    1.8970 H   0  0  0  0  0  0  0  0  0  0  0  0
   14.5580    0.2950    1.6390 H   0  0  0  0  0  0  0  0  0  0  0  0
   14.6520    0.1310   -0.1310 H   0  0  0  0  0  0  0  0  0  0  0  0
   13.0760   -1.7560   -0.0390 H   0  0  0  0  0  0  0  0  0  0  0  0
   12.9830   -1.5910    1.7310 H   0  0  0  0  0  0  0  0  0  0  0  0
   12.1360    0.7040    1.4730 H   0  0  0  0  0  0  0  0  0  0  0  0
   12.2290    0.5390   -0.2970 H   0  0  0  0  0  0  0  0  0  0  0  0
   10.6530   -1.3470   -0.2050 H   0  0  0  0  0  0  0  0  0  0  0  0
   10.5600   -1.1830    1.5650 H   0  0  0  0  0  0  0  0  0  0  0  0
    9.7130    1.1120    1.3070 H   0  0  0  0  0  0  0  0  0  0  0  0
    9.8060    0.9470   -0.4630 H   0  0  0  0  0  0  0  0  0  0  0  0
    8.2310   -0.9390   -0.3710 H   0  0  0  0  0  0  0  0  0  0  0  0
    8.1370   -0.7740    1.3990 H   0  0  0  0  0  0  0  0  0  0  0  0
    7.2900    1.5200    1.1410 H   0  0  0  0  0  0  0  0  0  0  0  0
    7.3840    1.3560   -0.6290 H   0  0  0  0  0  0  0  0  0  0  0  0
    5.8080   -0.5310   -0.5370 H   0  0  0  0  0  0  0  0  0  0  0  0
    5.7140   -0.3660    1.2330 H   0  0  0  0  0  0  0  0  0  0  0  0
    4.8670    1.9290    0.9750 H   0  0  0  0  0  0  0  0  0  0  0  0
    4.9610    1.7640   -0.7950 H   0  0  0  0  0  0  0  0  0  0  0  0
    2.4350    2.5960   -0.1110 O   0  0  0  0  0  0  0  0  0  0  0  0
   -2.3860    1.3780    0.0000 N   0  3  0  0  0  0  0  0  0  0  0  0
   -2.4290    2.4190    0.6630 O   0  0  0  0  0  0  0  0  0  0  0  0
   -3.3090    0.8950   -0.6630 O   0  5  0  0  0  0  0  0  0  0  0  0
  1  2  1  0  0  0  0
  1  9  2  0  0  0  0
  1 12  1  0  0  0  0
  2  3  1  0  0  0  0
  2  4  2  0  0  0  0
  4  5  1  0  0  0  0
  4 53  1  0  0  0  0
  5  6  1  0  0  0  0
  5  7  2  0  0  0  0
  7  8  1  0  0  0  0
  7  9  1  0  0  0  0
  9 10  1  0  0  0  0
 10 11  1  0  0  0  0
 12 13  1  0  0  0  0
 12 52  2  0  0  0  0
 13 14  1  0  0  0  0
 13 15  1  0  0  0  0
 15 16  1  0  0  0  0
 15 50  1  0  0  0  0
 15 51  1  0  0  0  0
 16 17  1  0  0  0  0
 16 48  1  0  0  0  0
 16 49  1  0  0  0  0
 17 18  1  0  0  0  0
 17 46  1  0  0  0  0
 17 47  1  0  0  0  0
 18 19  1  0  0  0  0
 18 44  1  0  0  0  0
 18 45  1  0  0  0  0
 19 20  1  0  0  0  0
 19 42  1  0  0  0  0
 19 43  1  0  0  0  0
 20 21  1  0  0  0  0
 20 40  1  0  0  0  0
 20 41  1  0  0  0  0
 21 22  1  0  0  0  0
 21 38  1  0  0  0  0
 21 39  1  0  0  0  0
 22 23  1  0  0  0  0
 22 36  1  0  0  0  0
 22 37  1  0  0  0  0
 23 24  1  0  0  0  0
 23 34  1  0  0  0  0
 23 35  1  0  0  0  0
 24 25  1  0  0  0  0
 24 32  1  0  0  0  0
 24 33  1  0  0  0  0
 25 26  1  0  0  0  0
 25 30  1  0  0  0  0
 25 31  1  0  0  0  0
 26 27  1  0  0  0  0
 26 28  1  0  0  0  0
 26 29  1  0  0  0  0
 53 54  2  0  0  0  0
 53 55  1  0  0  0  0
M  CHG  1  53   1
M  CHG  1  55  -1
M  END
>  <name>
E24

>  <LOGEC50>
1.41

>  <MolecularFormula>
C19H30O4N2

>  <ATCH1>
0.25619999

>  <ATCH2>
-0.1471

>  <ATCH3>
0.089500003

>  <ATCH4>
-0.1628

>  <ATCH5>
0.1108

>  <ATCH6>
-0.28080001

>  <ATCH7>
-0.21250001

>  <ATCH8>
0.4181

>  <ATCH9>
-0.40630001

>  <ATCH10>
-0.3998

>  <DIPV_X>
3.4223001

>  <DIPV_Y>
-0.38260001

>  <DIPV_Z>
-0.0241

>  <DIPMOM>
3.4437001

>  <ESDL1>
-0.51279998

>  <ESDL2>
-0.54900002

>  <ESDL3>
-0.81489998

>  <ESDL4>
-0.39950001

>  <ESDL5>
-0.95359999

>  <ESDL6>
-0.65310001

>  <ESDL7>
-0.39039999

>  <ESDL8>
-0.2376

>  <ESDL9>
-0.43869999

>  <ESDL10>
-0.32769999

>  <NSDL1>
5.8768001

>  <NSDL2>
3.8046999

>  <NSDL3>
1.1287

>  <NSDL4>
3.7149

>  <NSDL5>
1.3436

>  <NSDL6>
1.4154

>  <NSDL7>
1.0611

>  <NSDL8>
2.1902001

>  <NSDL9>
0.80489999

>  <NSDL10>
0.85519999

>  <VDWVOL>
340.19989

>  <SURF_A>
436.40833

>  <MOFI_X>
1650.2062

>  <MOFI_Y>
25060.273

>  <MOFI_Z>
23662.135

>  <PEAX_X>
18.336599

>  <PEAX_Y>
1.3418

>  <PEAX_Z>
4.6662998

>  <MOL_WT>
350.45987

>  <S8_1DX>
10.0295

>  <S8_1DY>
16.4804

>  <S8_1DZ>
7.1093998

>  <S8_1CX>
6.7638998

>  <S8_1CY>
-8.4629002

>  <S8_1CZ>
-1.4630001

>  <LOGP>
7.408

>  <M_PNT>
85

>  <SUM_F>
0.67000002

>  <SUM_R>
0.16

$$$$
L25
  MOE2013           3D

 67 67  0  0  0  0  0  0  0  0999 V2000
    1.2080    0.6970    0.0000 C   0  0  0  0  0  0  0  0  0  0  0  0
    0.0000    1.3950    0.0000 C   0  0  0  0  0  0  0  0  0  0  0  0
    0.0000    2.4820    0.0000 H   0  0  0  0  0  0  0  0  0  0  0  0
   -1.2080    0.6980    0.0000 C   0  0  0  0  0  0  0  0  0  0  0  0
   -2.1430    1.2380    0.0000 H   0  0  0  0  0  0  0  0  0  0  0  0
   -1.2080   -0.6980    0.0000 C   0  0  0  0  0  0  0  0  0  0  0  0
   -2.1490   -1.2410    0.0000 H   0  0  0  0  0  0  0  0  0  0  0  0
    0.0000   -1.3950    0.0000 C   0  0  0  0  0  0  0  0  0  0  0  0
    1.2080   -0.6980    0.0000 C   0  0  0  0  0  0  0  0  0  0  0  0
    2.4000   -1.3860    0.0000 O   0  0  0  0  0  0  0  0  0  0  0  0
    3.1860   -0.8350    0.0000 H   0  0  0  0  0  0  0  0  0  0  0  0
    2.3850    1.3780    0.0000 C   0  0  0  0  0  0  0  0  0  0  0  0
    3.5110    0.6090    0.1310 N   0  0  0  0  0  0  0  0  0  0  0  0
    3.4300   -0.3940    0.2200 H   0  0  0  0  0  0  0  0  0  0  0  0
    4.8060    1.2290    0.1420 C   0  0  0  0  0  0  0  0  0  0  0  0
    5.8690    0.1700    0.2960 C   0  0  0  0  0  0  0  0  0  0  0  0
    7.2290    0.8200    0.3080 C   0  0  0  0  0  0  0  0  0  0  0  0
    8.2920   -0.2390    0.4620 C   0  0  0  0  0  0  0  0  0  0  0  0
    9.6520    0.4120    0.4740 C   0  0  0  0  0  0  0  0  0  0  0  0
   10.7140   -0.6470    0.6280 C   0  0  0  0  0  0  0  0  0  0  0  0
   12.0750    0.0030    0.6400 C   0  0  0  0  0  0  0  0  0  0  0  0
   13.1370   -1.0560    0.7940 C   0  0  0  0  0  0  0  0  0  0  0  0
   14.4970   -0.4050    0.8060 C   0  0  0  0  0  0  0  0  0  0  0  0
   15.5600   -1.4640    0.9600 C   0  0  0  0  0  0  0  0  0  0  0  0
   16.9200   -0.8130    0.9720 C   0  0  0  0  0  0  0  0  0  0  0  0
   17.9830   -1.8720    1.1260 C   0  0  0  0  0  0  0  0  0  0  0  0
   19.3430   -1.2220    1.1380 C   0  0  0  0  0  0  0  0  0  0  0  0
   20.4050   -2.2810    1.2920 C   0  0  0  0  0  0  0  0  0  0  0  0
   21.7660   -1.6300    1.3040 C   0  0  0  0  0  0  0  0  0  0  0  0
   22.8280   -2.6890    1.4580 C   0  0  0  0  0  0  0  0  0  0  0  0
   23.8110   -2.2190    1.4660 H   0  0  0  0  0  0  0  0  0  0  0  0
   22.7670   -3.3890    0.6250 H   0  0  0  0  0  0  0  0  0  0  0  0
   22.6740   -3.2250    2.3950 H   0  0  0  0  0  0  0  0  0  0  0  0
   21.8270   -0.9300    2.1370 H   0  0  0  0  0  0  0  0  0  0  0  0
   21.9200   -1.0950    0.3670 H   0  0  0  0  0  0  0  0  0  0  0  0
   20.3440   -2.9810    0.4590 H   0  0  0  0  0  0  0  0  0  0  0  0
   20.2510   -2.8160    2.2290 H   0  0  0  0  0  0  0  0  0  0  0  0
   19.4040   -0.5220    1.9710 H   0  0  0  0  0  0  0  0  0  0  0  0
   19.4970   -0.6860    0.2010 H   0  0  0  0  0  0  0  0  0  0  0  0
   17.9220   -2.5730    0.2930 H   0  0  0  0  0  0  0  0  0  0  0  0
   17.8280   -2.4080    2.0630 H   0  0  0  0  0  0  0  0  0  0  0  0
   16.9810   -0.1130    1.8050 H   0  0  0  0  0  0  0  0  0  0  0  0
   17.0750   -0.2780    0.0350 H   0  0  0  0  0  0  0  0  0  0  0  0
   15.4990   -2.1640    0.1270 H   0  0  0  0  0  0  0  0  0  0  0  0
   15.4050   -2.0000    1.8970 H   0  0  0  0  0  0  0  0  0  0  0  0
   14.5580    0.2950    1.6390 H   0  0  0  0  0  0  0  0  0  0  0  0
   14.6520    0.1310   -0.1310 H   0  0  0  0  0  0  0  0  0  0  0  0
   13.0760   -1.7560   -0.0390 H   0  0  0  0  0  0  0  0  0  0  0  0
   12.9830   -1.5910    1.7310 H   0  0  0  0  0  0  0  0  0  0  0  0
   12.1360    0.7040    1.4730 H   0  0  0  0  0  0  0  0  0  0  0  0
   12.2290    0.5390   -0.2970 H   0  0  0  0  0  0  0  0  0  0  0  0
   10.6530   -1.3470   -0.2050 H   0  0  0  0  0  0  0  0  0  0  0  0
   10.5600   -1.1830    1.5650 H   0  0  0  0  0  0  0  0  0  0  0  0
    9.7130    1.1120    1.3070 H   0  0  0  0  0  0  0  0  0  0  0  0
    9.8060    0.9470   -0.4630 H   0  0  0  0  0  0  0  0  0  0  0  0
    8.2310   -0.9390   -0.3710 H   0  0  0  0  0  0  0  0  0  0  0  0
    8.1370   -0.7740    1.3990 H   0  0  0  0  0  0  0  0  0  0  0  0
    7.2900    1.5200    1.1410 H   0  0  0  0  0  0  0  0  0  0  0  0
    7.3840    1.3560   -0.6290 H   0  0  0  0  0  0  0  0  0  0  0  0
    5.8080   -0.5310   -0.5370 H   0  0  0  0  0  0  0  0  0  0  0  0
    5.7140   -0.3660    1.2330 H   0  0  0  0  0  0  0  0  0  0  0  0
    4.8670    1.9290    0.9750 H   0  0  0  0  0  0  0  0  0  0  0  0
    4.9610    1.7640   -0.7950 H   0  0  0  0  0  0  0  0  0  0  0  0
    2.4350    2.5960   -0.1110 O   0  0  0  0  0  0  0  0  0  0  0  0
    0.0000   -2.7550    0.0000 N   0  3  0  0  0  0  0  0  0  0  0  0
   -0.3410   -3.3130   -1.0480 O   0  0  0  0  0  0  0  0  0  0  0  0
    0.3410   -3.3130    1.0480 O   0  5  0  0  0  0  0  0  0  0  0  0
  1  2  1  0  0  0  0
  1  9  2  0  0  0  0
  1 12  1  0  0  0  0
  2  3  1  0  0  0  0
  2  4  2  0  0  0  0
  4  5  1  0  0  0  0
  4  6  1  0  0  0  0
  6  7  1  0  0  0  0
  6  8  2  0  0  0  0
  8  9  1  0  0  0  0
  8 65  1  0  0  0  0
  9 10  1  0  0  0  0
 10 11  1  0  0  0  0
 12 13  1  0  0  0  0
 12 64  2  0  0  0  0
 13 14  1  0  0  0  0
 13 15  1  0  0  0  0
 15 16  1  0  0  0  0
 15 62  1  0  0  0  0
 15 63  1  0  0  0  0
 16 17  1  0  0  0  0
 16 60  1  0  0  0  0
 16 61  1  0  0  0  0
 17 18  1  0  0  0  0
 17 58  1  0  0  0  0
 17 59  1  0  0  0  0
 18 19  1  0  0  0  0
 18 56  1  0  0  0  0
 18 57  1  0  0  0  0
 19 20  1  0  0  0  0
 19 54  1  0  0  0  0
 19 55  1  0  0  0  0
 20 21  1  0  0  0  0
 20 52  1  0  0  0  0
 20 53  1  0  0  0  0
 21 22  1  0  0  0  0
 21 50  1  0  0  0  0
 21 51  1  0  0  0  0
 22 23  1  0  0  0  0
 22 48  1  0  0  0  0
 22 49  1  0  0  0  0
 23 24  1  0  0  0  0
 23 46  1  0  0  0  0
 23 47  1  0  0  0  0
 24 25  1  0  0  0  0
 24 44  1  0  0  0  0
 24 45  1  0  0  0  0
 25 26  1  0  0  0  0
 25 42  1  0  0  0  0
 25 43  1  0  0  0  0
 26 27  1  0  0  0  0
 26 40  1  0  0  0  0
 26 41  1  0  0  0  0
 27 28  1  0  0  0  0
 27 38  1  0  0  0  0
 27 39  1  0  0  0  0
 28 29  1  0  0  0  0
 28 36  1  0  0  0  0
 28 37  1  0  0  0  0
 29 30  1  0  0  0  0
 29 34  1  0  0  0  0
 29 35  1  0  0  0  0
 30 31  1  0  0  0  0
 30 32  1  0  0  0  0
 30 33  1  0  0  0  0
 65 66  2  0  0  0  0
 65 67  1  0  0  0  0
M  CHG  1  65   1
M  CHG  1  67  -1
M  END
>  <name>
L25

>  <LOGEC50>
-0.039999999

>  <MolecularFormula>
C23H38O4N2

>  <ATCH1>
0.2793

>  <ATCH2>
-0.16509999

>  <ATCH3>
0.096900001

>  <ATCH4>
-0.1478

>  <ATCH5>
0.083700001

>  <ATCH6>
-0.2854

>  <ATCH7>
-0.1874

>  <ATCH8>
0.41729999

>  <ATCH9>
-0.40149999

>  <ATCH10>
-0.40130001

>  <DIPV_X>
-1.1208

>  <DIPV_Y>
-8.9224005

>  <DIPV_Z>
-0.035500001

>  <DIPMOM>
8.9926004

>  <ESDL1>
-1.2661999

>  <ESDL2>
-0.4321

>  <ESDL3>
-0.84149998

>  <ESDL4>
-0.66469997

>  <ESDL5>
-0.60290003

>  <ESDL6>
-0.66369998

>  <ESDL7>
-0.5273

>  <ESDL8>
-0.25279999

>  <ESDL9>
-0.44819999

>  <ESDL10>
-0.32960001

>  <NSDL1>
0.99449998

>  <NSDL2>
1.9733

>  <NSDL3>
1.2608

>  <NSDL4>
2.5997

>  <NSDL5>
2.7751

>  <NSDL6>
1.2974

>  <NSDL7>
0.35769999

>  <NSDL8>
2.1135001

>  <NSDL9>
0.75590003

>  <NSDL10>
0.84960002

>  <VDWVOL>
404.99973

>  <SURF_A>
520.96588

>  <MOFI_X>
808.4082

>  <MOFI_Y>
49091.137

>  <MOFI_Z>
46927.391

>  <PEAX_X>
24.212999

>  <PEAX_Y>
2.8889

>  <PEAX_Z>
4.2779999

>  <MOL_WT>
406.56778

>  <S8_1DX>
11.5158

>  <S8_1DY>
21.108801

>  <S8_1DZ>
7.5423999

>  <S8_1CX>
33.790501

>  <S8_1CY>
18.2964

>  <S8_1CZ>
0

>  <LOGP>
9.5200005

>  <M_PNT>
79

>  <SUM_F>
0.67000002

>  <SUM_R>
0.16

$$$$
I26
  MOE2013           3D

 41 43  0  0  1  0  0  0  0  0999 V2000
    1.2080    0.6970    0.0000 C   0  0  0  0  0  0  0  0  0  0  0  0
    0.0000    1.3950    0.0000 C   0  0  0  0  0  0  0  0  0  0  0  0
    0.0000    2.4820    0.0000 H   0  0  0  0  0  0  0  0  0  0  0  0
   -1.2080    0.6980    0.0000 C   0  0  0  0  0  0  0  0  0  0  0  0
   -1.2080   -0.6980    0.0000 C   0  0  0  0  0  0  0  0  0  0  0  0
   -2.1490   -1.2410    0.0000 H   0  0  0  0  0  0  0  0  0  0  0  0
    0.0000   -1.3950    0.0000 C   0  0  0  0  0  0  0  0  0  0  0  0
    0.0000   -2.4750    0.0000 H   0  0  0  0  0  0  0  0  0  0  0  0
    1.2080   -0.6980    0.0000 C   0  0  0  0  0  0  0  0  0  0  0  0
    2.4000   -1.3860    0.0000 O   0  0  0  0  0  0  0  0  0  0  0  0
    3.1860   -0.8350    0.0000 H   0  0  0  0  0  0  0  0  0  0  0  0
    2.3850    1.3780    0.0000 C   0  0  0  0  0  0  0  0  0  0  0  0
    3.5110    0.6090    0.1310 N   0  0  0  0  0  0  0  0  0  0  0  0
    3.4300   -0.3940    0.2200 H   0  0  0  0  0  0  0  0  0  0  0  0
    2.4350    2.5960   -0.1110 O   0  0  0  0  0  0  0  0  0  0  0  0
   -2.3860    1.3780    0.0000 N   0  3  0  0  0  0  0  0  0  0  0  0
   -2.4290    2.4190    0.6630 O   0  0  0  0  0  0  0  0  0  0  0  0
   -3.3090    0.8950   -0.6630 O   0  5  0  0  0  0  0  0  0  0  0  0
    7.2550    2.3990    0.1630 C   0  0  0  0  0  0  0  0  0  0  0  0
    8.5160    3.0010    0.1740 N   0  0  3  0  0  0  0  0  0  0  0  0
    8.7010    3.7970   -0.4190 H   0  0  0  0  0  0  0  0  0  0  0  0
    7.0010    1.2990    0.9830 C   0  0  0  0  0  0  0  0  0  0  0  0
    7.7830    0.9120    1.6300 H   0  0  0  0  0  0  0  0  0  0  0  0
    5.7430    0.6980    0.9730 C   0  0  0  0  0  0  0  0  0  0  0  0
    5.5440   -0.1590    1.6110 H   0  0  0  0  0  0  0  0  0  0  0  0
    4.7380    1.1960    0.1410 C   0  0  0  0  0  0  0  0  0  0  0  0
    4.9930    2.2950   -0.6780 C   0  0  0  0  0  0  0  0  0  0  0  0
    4.2100    2.6830   -1.3260 H   0  0  0  0  0  0  0  0  0  0  0  0
    6.2510    2.8970   -0.6680 C   0  0  0  0  0  0  0  0  0  0  0  0
    6.5650    4.2530   -1.6800 Cl  0  0  0  0  0  0  0  0  0  0  0  0
   11.5010    1.5190    2.6470 C   0  0  0  0  0  0  0  0  0  0  0  0
   12.7390    0.9050    3.6730 Cl  0  0  0  0  0  0  0  0  0  0  0  0
   10.6320    2.5040    3.1170 C   0  0  0  0  0  0  0  0  0  0  0  0
   10.7360    2.8830    4.1300 H   0  0  0  0  0  0  0  0  0  0  0  0
    9.6280    3.0020    2.2860 C   0  0  0  0  0  0  0  0  0  0  0  0
    8.9510    3.7690    2.6510 H   0  0  0  0  0  0  0  0  0  0  0  0
    9.4950    2.5160    0.9840 C   0  0  0  0  0  0  0  0  0  0  0  0
   10.3640    1.5310    0.5150 C   0  0  0  0  0  0  0  0  0  0  0  0
   10.2600    1.1520   -0.4980 H   0  0  0  0  0  0  0  0  0  0  0  0
   11.3680    1.0330    1.3460 C   0  0  0  0  0  0  0  0  0  0  0  0
   12.0450    0.2660    0.9810 H   0  0  0  0  0  0  0  0  0  0  0  0
  1  2  1  0  0  0  0
  1  9  2  0  0  0  0
  1 12  1  0  0  0  0
  2  3  1  0  0  0  0
  2  4  2  0  0  0  0
  4  5  1  0  0  0  0
  4 16  1  0  0  0  0
  5  6  1  0  0  0  0
  5  7  2  0  0  0  0
  7  8  1  0  0  0  0
  7  9  1  0  0  0  0
  9 10  1  0  0  0  0
 10 11  1  0  0  0  0
 12 13  1  0  0  0  0
 12 15  2  0  0  0  0
 13 14  1  0  0  0  0
 13 26  1  0  0  0  0
 16 17  2  0  0  0  0
 16 18  1  0  0  0  0
 19 20  1  0  0  0  0
 19 22  1  0  0  0  0
 19 29  2  0  0  0  0
 20 21  1  0  0  0  0
 20 37  1  0  0  0  0
 22 23  1  0  0  0  0
 22 24  2  0  0  0  0
 24 25  1  0  0  0  0
 24 26  1  0  0  0  0
 26 27  2  0  0  0  0
 27 28  1  0  0  0  0
 27 29  1  0  0  0  0
 29 30  1  0  0  0  0
 31 32  1  0  0  0  0
 31 33  1  0  0  0  0
 31 40  2  0  0  0  0
 33 34  1  0  0  0  0
 33 35  2  0  0  0  0
 35 36  1  0  0  0  0
 35 37  1  0  0  0  0
 37 38  2  0  0  0  0
 38 39  1  0  0  0  0
 38 40  1  0  0  0  0
 40 41  1  0  0  0  0
M  CHG  1  16   1
M  CHG  1  18  -1
M  END
>  <name>
I26

>  <LOGEC50>
0.43000001

>  <MolecularFormula>
C19H13O4N3Cl2

>  <ATCH1>
0.25780001

>  <ATCH2>
-0.1452

>  <ATCH3>
0.0911

>  <ATCH4>
-0.16

>  <ATCH5>
0.1084

>  <ATCH6>
-0.2861

>  <ATCH7>
-0.2097

>  <ATCH8>
0.42449999

>  <ATCH9>
-0.3937

>  <ATCH10>
-0.32480001

>  <DIPV_X>
2.2681

>  <DIPV_Y>
1.3472

>  <DIPV_Z>
0.66140002

>  <DIPMOM>
2.7197001

>  <ESDL1>
-34.204601

>  <ESDL2>
-14.0039

>  <ESDL3>
-1.0883

>  <ESDL4>
-18.5399

>  <ESDL5>
-2.4267001

>  <ESDL6>
-7.0823998

>  <ESDL7>
-5.1571999

>  <ESDL8>
-1.5257

>  <ESDL9>
-1.0239

>  <ESDL10>
-1.5813

>  <NSDL1>
0.99529999

>  <NSDL2>
1.0579

>  <NSDL3>
1.1390001

>  <NSDL4>
1.6811

>  <NSDL5>
1.0183001

>  <NSDL6>
1.137

>  <NSDL7>
0.37220001

>  <NSDL8>
2.0056

>  <NSDL9>
0.62919998

>  <NSDL10>
0.96710002

>  <VDWVOL>
328.2999

>  <SURF_A>
380.38226

>  <MOFI_X>
3064.9253

>  <MOFI_Y>
19326.949

>  <MOFI_Z>
16851.723

>  <PEAX_X>
14.1238

>  <PEAX_Y>
1.8848

>  <PEAX_Z>
5.7771001

>  <MOL_WT>
418.2366

>  <S8_1DX>
8.6219997

>  <S8_1DY>
11.7029

>  <S8_1DZ>
7.8834

>  <S8_1CX>
5.9993

>  <S8_1CY>
-5.7536998

>  <S8_1CZ>
-1.6195

>  <LOGP>
6.8109999

>  <M_PNT>
173

>  <SUM_F>
0.67000002

>  <SUM_R>
0.16

$$$$
B27
  MOE2013           3D

 43 45  0  0  0  0  0  0  0  0999 V2000
    1.0710    0.6020   -0.2680 C   0  0  0  0  0  0  0  0  0  0  0  0
   -0.1690    1.2110   -0.5030 C   0  0  0  0  0  0  0  0  0  0  0  0
   -0.2080    2.2740   -0.7350 H   0  0  0  0  0  0  0  0  0  0  0  0
   -1.3380    0.4440   -0.4180 C   0  0  0  0  0  0  0  0  0  0  0  0
   -1.2790   -0.9210   -0.1070 C   0  0  0  0  0  0  0  0  0  0  0  0
   -2.1780   -1.5280   -0.0330 H   0  0  0  0  0  0  0  0  0  0  0  0
   -0.0380   -1.5240    0.1080 C   0  0  0  0  0  0  0  0  0  0  0  0
    0.0170   -2.5860    0.3350 H   0  0  0  0  0  0  0  0  0  0  0  0
    1.1310   -0.7700    0.0120 C   0  0  0  0  0  0  0  0  0  0  0  0
    2.3070   -1.4450    0.1960 O   0  0  0  0  0  0  0  0  0  0  0  0
    3.0140   -1.0110   -0.3180 H   0  0  0  0  0  0  0  0  0  0  0  0
    2.2860    1.4560   -0.3190 C   0  0  0  0  0  0  0  0  0  0  0  0
    3.2340    1.1510    0.6420 N   0  0  0  0  0  0  0  0  0  0  0  0
    2.9850    0.4490    1.3350 H   0  0  0  0  0  0  0  0  0  0  0  0
    2.3390    2.3340   -1.1700 O   0  0  0  0  0  0  0  0  0  0  0  0
   -2.6400    1.0790   -0.6460 N   0  3  0  0  0  0  0  0  0  0  0  0
   -2.6560    2.2940   -0.8830 O   0  0  0  0  0  0  0  0  0  0  0  0
   -3.6490    0.3610   -0.5860 O   0  5  0  0  0  0  0  0  0  0  0  0
    7.1150    2.7030    1.1750 C   0  0  0  0  0  0  0  0  0  0  0  0
    8.3710    3.2460    1.3280 O   0  0  0  0  0  0  0  0  0  0  0  0
    6.5920    1.7550    2.0550 C   0  0  0  0  0  0  0  0  0  0  0  0
    7.1760    1.3970    2.8990 H   0  0  0  0  0  0  0  0  0  0  0  0
    5.3010    1.2600    1.8530 C   0  0  0  0  0  0  0  0  0  0  0  0
    4.9190    0.5150    2.5460 H   0  0  0  0  0  0  0  0  0  0  0  0
    4.5180    1.7180    0.7850 C   0  0  0  0  0  0  0  0  0  0  0  0
    5.0420    2.6890   -0.0740 C   0  0  0  0  0  0  0  0  0  0  0  0
    4.4690    3.0800   -0.9090 H   0  0  0  0  0  0  0  0  0  0  0  0
    6.3340    3.1850    0.1260 C   0  0  0  0  0  0  0  0  0  0  0  0
    6.7310    3.9420   -0.5450 H   0  0  0  0  0  0  0  0  0  0  0  0
   11.5700    0.6910    2.0740 C   0  0  0  0  0  0  0  0  0  0  0  0
   12.4110    0.0250    2.2640 H   0  0  0  0  0  0  0  0  0  0  0  0
   11.3560    1.8130    2.8890 C   0  0  0  0  0  0  0  0  0  0  0  0
   10.2720    2.6590    2.6100 C   0  0  0  0  0  0  0  0  0  0  0  0
   10.0960    3.5450    3.2180 H   0  0  0  0  0  0  0  0  0  0  0  0
    9.4050    2.3650    1.5570 C   0  0  0  0  0  0  0  0  0  0  0  0
    9.6340    1.2550    0.7410 C   0  0  0  0  0  0  0  0  0  0  0  0
    8.9820    1.0420   -0.1020 H   0  0  0  0  0  0  0  0  0  0  0  0
   10.7140    0.4150    1.0060 C   0  0  0  0  0  0  0  0  0  0  0  0
   10.8920   -0.4530    0.3760 H   0  0  0  0  0  0  0  0  0  0  0  0
   12.2950    2.1330    4.0210 C   0  0  0  0  0  0  0  0  0  0  0  0
   11.6550    2.6310    5.1160 F   0  0  0  0  0  0  0  0  0  0  0  0
   13.2240    3.0660    3.6760 F   0  0  0  0  0  0  0  0  0  0  0  0
   12.9960    1.0520    4.4630 F   0  0  0  0  0  0  0  0  0  0  0  0
  1  2  1  0  0  0  0
  1  9  2  0  0  0  0
  1 12  1  0  0  0  0
  2  3  1  0  0  0  0
  2  4  2  0  0  0  0
  4  5  1  0  0  0  0
  4 16  1  0  0  0  0
  5  6  1  0  0  0  0
  5  7  2  0  0  0  0
  7  8  1  0  0  0  0
  7  9  1  0  0  0  0
  9 10  1  0  0  0  0
 10 11  1  0  0  0  0
 12 13  1  0  0  0  0
 12 15  2  0  0  0  0
 13 14  1  0  0  0  0
 13 25  1  0  0  0  0
 16 17  2  0  0  0  0
 16 18  1  0  0  0  0
 19 20  1  0  0  0  0
 19 21  1  0  0  0  0
 19 28  2  0  0  0  0
 20 35  1  0  0  0  0
 21 22  1  0  0  0  0
 21 23  2  0  0  0  0
 23 24  1  0  0  0  0
 23 25  1  0  0  0  0
 25 26  2  0  0  0  0
 26 27  1  0  0  0  0
 26 28  1  0  0  0  0
 28 29  1  0  0  0  0
 30 31  1  0  0  0  0
 30 32  1  0  0  0  0
 30 38  2  0  0  0  0
 32 33  2  0  0  0  0
 32 40  1  0  0  0  0
 33 34  1  0  0  0  0
 33 35  1  0  0  0  0
 35 36  2  0  0  0  0
 36 37  1  0  0  0  0
 36 38  1  0  0  0  0
 38 39  1  0  0  0  0
 40 41  1  0  0  0  0
 40 42  1  0  0  0  0
 40 43  1  0  0  0  0
M  CHG  1  16   1
M  CHG  1  18  -1
M  END
>  <name>
B27

>  <LOGEC50>
1.03

>  <MolecularFormula>
C20H13O5N2F3

>  <ATCH1>
0.26010001

>  <ATCH2>
-0.1468

>  <ATCH3>
0.091799997

>  <ATCH4>
-0.1619

>  <ATCH5>
0.1113

>  <ATCH6>
-0.2886

>  <ATCH7>
-0.2141

>  <ATCH8>
0.42739999

>  <ATCH9>
-0.39860001

>  <ATCH10>
-0.32370001

>  <DIPV_X>
0.43560001

>  <DIPV_Y>
2.6106999

>  <DIPV_Z>
-1.5316

>  <DIPMOM>
3.0580001

>  <ESDL1>
-9.8302002

>  <ESDL2>
-5.5302

>  <ESDL3>
-0.86989999

>  <ESDL4>
-4.6659999

>  <ESDL5>
-1.5161999

>  <ESDL6>
-1.5364

>  <ESDL7>
-1.7318

>  <ESDL8>
-0.85659999

>  <ESDL9>
-0.75739998

>  <ESDL10>
-0.57980001

>  <NSDL1>
0.99330002

>  <NSDL2>
1.0596

>  <NSDL3>
1.1476001

>  <NSDL4>
1.6826

>  <NSDL5>
1.0159

>  <NSDL6>
1.1507

>  <NSDL7>
0.36790001

>  <NSDL8>
2.0825

>  <NSDL9>
0.64770001

>  <NSDL10>
0.98970002

>  <VDWVOL>
321.59988

>  <SURF_A>
385.27243

>  <MOFI_X>
1846.9785

>  <MOFI_Y>
22716.93

>  <MOFI_Z>
21426.619

>  <PEAX_X>
15.9624

>  <PEAX_Y>
1.8312

>  <PEAX_Z>
4.3473001

>  <MOL_WT>
418.32956

>  <S8_1DX>
11.1225

>  <S8_1DY>
11.9605

>  <S8_1DZ>
6.7951002

>  <S8_1CX>
7.1462998

>  <S8_1CY>
-5.9329

>  <S8_1CZ>
-1.2049

>  <LOGP>
6.6950002

>  <M_PNT>
176

>  <SUM_F>
0.67000002

>  <SUM_R>
0.16

$$$$
B28
  MOE2013           3D

 44 46  0  0  0  0  0  0  0  0999 V2000
    1.0710    0.6020   -0.2680 C   0  0  0  0  0  0  0  0  0  0  0  0
   -0.1690    1.2110   -0.5030 C   0  0  0  0  0  0  0  0  0  0  0  0
   -0.2080    2.2740   -0.7350 H   0  0  0  0  0  0  0  0  0  0  0  0
   -1.3380    0.4440   -0.4180 C   0  0  0  0  0  0  0  0  0  0  0  0
   -1.2790   -0.9210   -0.1070 C   0  0  0  0  0  0  0  0  0  0  0  0
   -2.1780   -1.5280   -0.0330 H   0  0  0  0  0  0  0  0  0  0  0  0
   -0.0380   -1.5240    0.1080 C   0  0  0  0  0  0  0  0  0  0  0  0
    0.0170   -2.5860    0.3350 H   0  0  0  0  0  0  0  0  0  0  0  0
    1.1310   -0.7700    0.0120 C   0  0  0  0  0  0  0  0  0  0  0  0
    2.3070   -1.4450    0.1960 O   0  0  0  0  0  0  0  0  0  0  0  0
    3.0140   -1.0110   -0.3180 H   0  0  0  0  0  0  0  0  0  0  0  0
    2.2860    1.4560   -0.3190 C   0  0  0  0  0  0  0  0  0  0  0  0
    3.2340    1.1510    0.6420 N   0  0  0  0  0  0  0  0  0  0  0  0
    2.9850    0.4490    1.3350 H   0  0  0  0  0  0  0  0  0  0  0  0
    2.3390    2.3340   -1.1700 O   0  0  0  0  0  0  0  0  0  0  0  0
   -2.6400    1.0790   -0.6460 N   0  3  0  0  0  0  0  0  0  0  0  0
   -2.6560    2.2940   -0.8830 O   0  0  0  0  0  0  0  0  0  0  0  0
   -3.6490    0.3610   -0.5860 O   0  5  0  0  0  0  0  0  0  0  0  0
    7.1150    2.7030    1.1750 C   0  0  0  0  0  0  0  0  0  0  0  0
    8.3710    3.2460    1.3280 O   0  0  0  0  0  0  0  0  0  0  0  0
    6.5920    1.7550    2.0550 C   0  0  0  0  0  0  0  0  0  0  0  0
    7.1760    1.3970    2.8990 H   0  0  0  0  0  0  0  0  0  0  0  0
    5.3010    1.2600    1.8530 C   0  0  0  0  0  0  0  0  0  0  0  0
    4.9190    0.5150    2.5460 H   0  0  0  0  0  0  0  0  0  0  0  0
    4.5180    1.7180    0.7850 C   0  0  0  0  0  0  0  0  0  0  0  0
    5.0420    2.6890   -0.0740 C   0  0  0  0  0  0  0  0  0  0  0  0
    4.4690    3.0800   -0.9090 H   0  0  0  0  0  0  0  0  0  0  0  0
    6.3340    3.1850    0.1260 C   0  0  0  0  0  0  0  0  0  0  0  0
    6.9630    4.3840   -0.9370 Cl  0  0  0  0  0  0  0  0  0  0  0  0
   11.5700    0.6910    2.0740 C   0  0  0  0  0  0  0  0  0  0  0  0
   12.9330   -0.3870    2.3820 S   0  0  0  0  0  0  0  0  0  0  0  0
   12.9290   -1.7240    1.1700 C   0  0  0  0  0  0  0  0  0  0  0  0
   13.9790   -2.5550    1.4070 F   0  0  0  0  0  0  0  0  0  0  0  0
   13.0380   -1.2020   -0.0810 F   0  0  0  0  0  0  0  0  0  0  0  0
   11.7660   -2.4230    1.2690 F   0  0  0  0  0  0  0  0  0  0  0  0
   11.3560    1.8130    2.8890 C   0  0  0  0  0  0  0  0  0  0  0  0
   12.0160    2.0230    3.7170 H   0  0  0  0  0  0  0  0  0  0  0  0
   10.2720    2.6590    2.6100 C   0  0  0  0  0  0  0  0  0  0  0  0
   10.0960    3.5450    3.2180 H   0  0  0  0  0  0  0  0  0  0  0  0
    9.4050    2.3650    1.5570 C   0  0  0  0  0  0  0  0  0  0  0  0
    9.6340    1.2550    0.7410 C   0  0  0  0  0  0  0  0  0  0  0  0
    8.9820    1.0420   -0.1020 H   0  0  0  0  0  0  0  0  0  0  0  0
   10.7140    0.4150    1.0060 C   0  0  0  0  0  0  0  0  0  0  0  0
   10.8920   -0.4530    0.3760 H   0  0  0  0  0  0  0  0  0  0  0  0
  1  2  1  0  0  0  0
  1  9  2  0  0  0  0
  1 12  1  0  0  0  0
  2  3  1  0  0  0  0
  2  4  2  0  0  0  0
  4  5  1  0  0  0  0
  4 16  1  0  0  0  0
  5  6  1  0  0  0  0
  5  7  2  0  0  0  0
  7  8  1  0  0  0  0
  7  9  1  0  0  0  0
  9 10  1  0  0  0  0
 10 11  1  0  0  0  0
 12 13  1  0  0  0  0
 12 15  2  0  0  0  0
 13 14  1  0  0  0  0
 13 25  1  0  0  0  0
 16 17  2  0  0  0  0
 16 18  1  0  0  0  0
 19 20  1  0  0  0  0
 19 21  1  0  0  0  0
 19 28  2  0  0  0  0
 20 40  1  0  0  0  0
 21 22  1  0  0  0  0
 21 23  2  0  0  0  0
 23 24  1  0  0  0  0
 23 25  1  0  0  0  0
 25 26  2  0  0  0  0
 26 27  1  0  0  0  0
 26 28  1  0  0  0  0
 28 29  1  0  0  0  0
 30 31  1  0  0  0  0
 30 36  1  0  0  0  0
 30 43  2  0  0  0  0
 31 32  1  0  0  0  0
 32 33  1  0  0  0  0
 32 34  1  0  0  0  0
 32 35  1  0  0  0  0
 36 37  1  0  0  0  0
 36 38  2  0  0  0  0
 38 39  1  0  0  0  0
 38 40  1  0  0  0  0
 40 41  2  0  0  0  0
 41 42  1  0  0  0  0
 41 43  1  0  0  0  0
 43 44  1  0  0  0  0
M  CHG  1  16   1
M  CHG  1  18  -1
M  END
>  <name>
B28

>  <LOGEC50>
1.55

>  <MolecularFormula>
C20H12O5N2ClSF3

>  <ATCH1>
0.26089999

>  <ATCH2>
-0.1459

>  <ATCH3>
0.092399999

>  <ATCH4>
-0.1611

>  <ATCH5>
0.1113

>  <ATCH6>
-0.2902

>  <ATCH7>
-0.21259999

>  <ATCH8>
0.42739999

>  <ATCH9>
-0.39379999

>  <ATCH10>
-0.32429999

>  <DIPV_X>
-0.29550001

>  <DIPV_Y>
2.5579

>  <DIPV_Z>
0.46200001

>  <DIPMOM>
2.6161001

>  <ESDL1>
-4.1539001

>  <ESDL2>
-2.6584001

>  <ESDL3>
-0.7949

>  <ESDL4>
-1.9782

>  <ESDL5>
-1.1159

>  <ESDL6>
-0.85890001

>  <ESDL7>
-0.91339999

>  <ESDL8>
-0.61870003

>  <ESDL9>
-0.62470001

>  <ESDL10>
-0.4219

>  <NSDL1>
1.0152

>  <NSDL2>
1.0966001

>  <NSDL3>
1.2085

>  <NSDL4>
1.7759

>  <NSDL5>
1.043

>  <NSDL6>
1.2138

>  <NSDL7>
0.37400001

>  <NSDL8>
2.3728001

>  <NSDL9>
0.75089997

>  <NSDL10>
1.0921

>  <VDWVOL>
353.99988

>  <SURF_A>
421.53546

>  <MOFI_X>
3010.1609

>  <MOFI_Y>
28906.992

>  <MOFI_Z>
26566.662

>  <PEAX_X>
16.530199

>  <PEAX_Y>
1.8678

>  <PEAX_Z>
5.2789001

>  <MOL_WT>
484.83456

>  <S8_1DX>
10.5676

>  <S8_1DY>
13.4492

>  <S8_1DZ>
6.8999

>  <S8_1CX>
6.8571

>  <S8_1CY>
-6.6848001

>  <S8_1CZ>
-1.2939

>  <LOGP>
7.869

>  <M_PNT>
195

>  <SUM_F>
0.67000002

>  <SUM_R>
0.16

$$$$
B29
  MOE2013           3D

 43 45  0  0  0  0  0  0  0  0999 V2000
    1.0710    0.6020   -0.2680 C   0  0  0  0  0  0  0  0  0  0  0  0
   -0.1690    1.2110   -0.5030 C   0  0  0  0  0  0  0  0  0  0  0  0
   -0.2080    2.2740   -0.7350 H   0  0  0  0  0  0  0  0  0  0  0  0
   -1.3380    0.4440   -0.4180 C   0  0  0  0  0  0  0  0  0  0  0  0
   -1.2790   -0.9210   -0.1070 C   0  0  0  0  0  0  0  0  0  0  0  0
   -2.1780   -1.5280   -0.0330 H   0  0  0  0  0  0  0  0  0  0  0  0
   -0.0380   -1.5240    0.1080 C   0  0  0  0  0  0  0  0  0  0  0  0
    0.0170   -2.5860    0.3350 H   0  0  0  0  0  0  0  0  0  0  0  0
    1.1310   -0.7700    0.0120 C   0  0  0  0  0  0  0  0  0  0  0  0
    2.3070   -1.4450    0.1960 O   0  0  0  0  0  0  0  0  0  0  0  0
    3.0140   -1.0110   -0.3180 H   0  0  0  0  0  0  0  0  0  0  0  0
    2.2860    1.4560   -0.3190 C   0  0  0  0  0  0  0  0  0  0  0  0
    3.2340    1.1510    0.6420 N   0  0  0  0  0  0  0  0  0  0  0  0
    2.9850    0.4490    1.3350 H   0  0  0  0  0  0  0  0  0  0  0  0
    2.3390    2.3340   -1.1700 O   0  0  0  0  0  0  0  0  0  0  0  0
   -2.6400    1.0790   -0.6460 N   0  3  0  0  0  0  0  0  0  0  0  0
   -2.6560    2.2940   -0.8830 O   0  0  0  0  0  0  0  0  0  0  0  0
   -3.6490    0.3610   -0.5860 O   0  5  0  0  0  0  0  0  0  0  0  0
    7.1150    2.7030    1.1750 C   0  0  0  0  0  0  0  0  0  0  0  0
    8.3710    3.2460    1.3280 O   0  0  0  0  0  0  0  0  0  0  0  0
    6.5920    1.7550    2.0550 C   0  0  0  0  0  0  0  0  0  0  0  0
    7.1760    1.3970    2.8990 H   0  0  0  0  0  0  0  0  0  0  0  0
    5.3010    1.2600    1.8530 C   0  0  0  0  0  0  0  0  0  0  0  0
    4.9190    0.5150    2.5460 H   0  0  0  0  0  0  0  0  0  0  0  0
    4.5180    1.7180    0.7850 C   0  0  0  0  0  0  0  0  0  0  0  0
    5.0420    2.6890   -0.0740 C   0  0  0  0  0  0  0  0  0  0  0  0
    4.4690    3.0800   -0.9090 H   0  0  0  0  0  0  0  0  0  0  0  0
    6.3340    3.1850    0.1260 C   0  0  0  0  0  0  0  0  0  0  0  0
    6.9630    4.3840   -0.9370 Cl  0  0  0  0  0  0  0  0  0  0  0  0
   11.5700    0.6910    2.0740 C   0  0  0  0  0  0  0  0  0  0  0  0
   12.4110    0.0250    2.2640 H   0  0  0  0  0  0  0  0  0  0  0  0
   11.3560    1.8130    2.8890 C   0  0  0  0  0  0  0  0  0  0  0  0
   10.2720    2.6590    2.6100 C   0  0  0  0  0  0  0  0  0  0  0  0
   10.0960    3.5450    3.2180 H   0  0  0  0  0  0  0  0  0  0  0  0
    9.4050    2.3650    1.5570 C   0  0  0  0  0  0  0  0  0  0  0  0
    9.6340    1.2550    0.7410 C   0  0  0  0  0  0  0  0  0  0  0  0
    8.9820    1.0420   -0.1020 H   0  0  0  0  0  0  0  0  0  0  0  0
   10.7140    0.4150    1.0060 C   0  0  0  0  0  0  0  0  0  0  0  0
   10.8920   -0.4530    0.3760 H   0  0  0  0  0  0  0  0  0  0  0  0
   12.2950    2.1330    4.0210 C   0  0  0  0  0  0  0  0  0  0  0  0
   11.6550    2.6310    5.1160 F   0  0  0  0  0  0  0  0  0  0  0  0
   13.2240    3.0660    3.6760 F   0  0  0  0  0  0  0  0  0  0  0  0
   12.9960    1.0520    4.4630 F   0  0  0  0  0  0  0  0  0  0  0  0
  1  2  1  0  0  0  0
  1  9  2  0  0  0  0
  1 12  1  0  0  0  0
  2  3  1  0  0  0  0
  2  4  2  0  0  0  0
  4  5  1  0  0  0  0
  4 16  1  0  0  0  0
  5  6  1  0  0  0  0
  5  7  2  0  0  0  0
  7  8  1  0  0  0  0
  7  9  1  0  0  0  0
  9 10  1  0  0  0  0
 10 11  1  0  0  0  0
 12 13  1  0  0  0  0
 12 15  2  0  0  0  0
 13 14  1  0  0  0  0
 13 25  1  0  0  0  0
 16 17  2  0  0  0  0
 16 18  1  0  0  0  0
 19 20  1  0  0  0  0
 19 21  1  0  0  0  0
 19 28  2  0  0  0  0
 20 35  1  0  0  0  0
 21 22  1  0  0  0  0
 21 23  2  0  0  0  0
 23 24  1  0  0  0  0
 23 25  1  0  0  0  0
 25 26  2  0  0  0  0
 26 27  1  0  0  0  0
 26 28  1  0  0  0  0
 28 29  1  0  0  0  0
 30 31  1  0  0  0  0
 30 32  1  0  0  0  0
 30 38  2  0  0  0  0
 32 33  2  0  0  0  0
 32 40  1  0  0  0  0
 33 34  1  0  0  0  0
 33 35  1  0  0  0  0
 35 36  2  0  0  0  0
 36 37  1  0  0  0  0
 36 38  1  0  0  0  0
 38 39  1  0  0  0  0
 40 41  1  0  0  0  0
 40 42  1  0  0  0  0
 40 43  1  0  0  0  0
M  CHG  1  16   1
M  CHG  1  18  -1
M  END
>  <name>
B29

>  <LOGEC50>
1.0700001

>  <MolecularFormula>
C20H12O5N2ClF3

>  <ATCH1>
0.26120001

>  <ATCH2>
-0.146

>  <ATCH3>
0.092600003

>  <ATCH4>
-0.1612

>  <ATCH5>
0.1111

>  <ATCH6>
-0.2899

>  <ATCH7>
-0.21259999

>  <ATCH8>
0.42730001

>  <ATCH9>
-0.3942

>  <ATCH10>
-0.32429999

>  <DIPV_X>
-1.084

>  <DIPV_Y>
1.9937

>  <DIPV_Z>
-1.5566

>  <DIPMOM>
2.7519

>  <ESDL1>
-4.1114998

>  <ESDL2>
-2.6324

>  <ESDL3>
-0.7949

>  <ESDL4>
-1.9608999

>  <ESDL5>
-1.1127

>  <ESDL6>
-0.85650003

>  <ESDL7>
-0.90780002

>  <ESDL8>
-0.62150002

>  <ESDL9>
-0.6257

>  <ESDL10>
-0.42109999

>  <NSDL1>
1.0158

>  <NSDL2>
1.0973001

>  <NSDL3>
1.2101001

>  <NSDL4>
1.7782

>  <NSDL5>
1.0431

>  <NSDL6>
1.2176

>  <NSDL7>
0.37400001

>  <NSDL8>
2.3852999

>  <NSDL9>
0.75410002

>  <NSDL10>
1.0987999

>  <VDWVOL>
336.09991

>  <SURF_A>
401.82898

>  <MOFI_X>
2447.4656

>  <MOFI_Y>
23459.074

>  <MOFI_Z>
21598.625

>  <PEAX_X>
15.4201

>  <PEAX_Y>
1.8099

>  <PEAX_Z>
4.9029999

>  <MOL_WT>
452.77457

>  <S8_1DX>
11.1316

>  <S8_1DY>
11.6704

>  <S8_1DZ>
6.2340002

>  <S8_1CX>
7.1444001

>  <S8_1CY>
-5.7897

>  <S8_1CZ>
-1.2802

>  <LOGP>
7.2690001

>  <M_PNT>
192

>  <SUM_F>
0.67000002

>  <SUM_R>
0.16

$$$$
D30
  MOE2013           3D

 43 45  0  0  1  0  0  0  0  0999 V2000
    1.0710    0.6020   -0.2680 C   0  0  0  0  0  0  0  0  0  0  0  0
   -0.1690    1.2110   -0.5030 C   0  0  0  0  0  0  0  0  0  0  0  0
   -0.2080    2.2740   -0.7350 H   0  0  0  0  0  0  0  0  0  0  0  0
   -1.3380    0.4440   -0.4180 C   0  0  0  0  0  0  0  0  0  0  0  0
   -1.2790   -0.9210   -0.1070 C   0  0  0  0  0  0  0  0  0  0  0  0
   -2.1780   -1.5280   -0.0330 H   0  0  0  0  0  0  0  0  0  0  0  0
   -0.0380   -1.5240    0.1080 C   0  0  0  0  0  0  0  0  0  0  0  0
    0.0170   -2.5860    0.3350 H   0  0  0  0  0  0  0  0  0  0  0  0
    1.1310   -0.7700    0.0120 C   0  0  0  0  0  0  0  0  0  0  0  0
    2.3070   -1.4450    0.1960 O   0  0  0  0  0  0  0  0  0  0  0  0
    3.0140   -1.0110   -0.3180 H   0  0  0  0  0  0  0  0  0  0  0  0
    2.2860    1.4560   -0.3190 C   0  0  0  0  0  0  0  0  0  0  0  0
    3.2340    1.1510    0.6420 N   0  0  0  0  0  0  0  0  0  0  0  0
    2.9850    0.4490    1.3350 H   0  0  0  0  0  0  0  0  0  0  0  0
    2.3390    2.3340   -1.1700 O   0  0  0  0  0  0  0  0  0  0  0  0
   -2.6400    1.0790   -0.6460 N   0  3  0  0  0  0  0  0  0  0  0  0
   -2.6560    2.2940   -0.8830 O   0  0  0  0  0  0  0  0  0  0  0  0
   -3.6490    0.3610   -0.5860 O   0  5  0  0  0  0  0  0  0  0  0  0
    7.1150    2.7030    1.1750 C   0  0  0  0  0  0  0  0  0  0  0  0
    8.5040    3.1990    1.3560 C   0  0  1  0  0  0  0  0  0  0  0  0
    8.4820    4.6010    1.5620 O   0  0  0  0  0  0  0  0  0  0  0  0
    9.3900    4.8920    1.6750 H   0  0  0  0  0  0  0  0  0  0  0  0
    9.0900    2.9710    0.4660 H   0  0  0  0  0  0  0  0  0  0  0  0
    6.5920    1.7550    2.0550 C   0  0  0  0  0  0  0  0  0  0  0  0
    7.1760    1.3970    2.8990 H   0  0  0  0  0  0  0  0  0  0  0  0
    5.3010    1.2600    1.8530 C   0  0  0  0  0  0  0  0  0  0  0  0
    4.9190    0.5150    2.5460 H   0  0  0  0  0  0  0  0  0  0  0  0
    4.5180    1.7180    0.7850 C   0  0  0  0  0  0  0  0  0  0  0  0
    5.0420    2.6890   -0.0740 C   0  0  0  0  0  0  0  0  0  0  0  0
    4.4690    3.0800   -0.9090 H   0  0  0  0  0  0  0  0  0  0  0  0
    6.3340    3.1850    0.1260 C   0  0  0  0  0  0  0  0  0  0  0  0
    6.7280    3.9440   -0.5340 H   0  0  0  0  0  0  0  0  0  0  0  0
   10.2170    1.3430    4.6490 C   0  0  0  0  0  0  0  0  0  0  0  0
   10.6650    0.8570    5.5120 H   0  0  0  0  0  0  0  0  0  0  0  0
   10.3980    0.8070    3.3740 C   0  0  0  0  0  0  0  0  0  0  0  0
   10.9880   -0.0970    3.2430 H   0  0  0  0  0  0  0  0  0  0  0  0
    9.8230    1.4300    2.2670 C   0  0  0  0  0  0  0  0  0  0  0  0
    9.9630    1.0130    1.2740 H   0  0  0  0  0  0  0  0  0  0  0  0
    9.0650    2.5910    2.4360 C   0  0  0  0  0  0  0  0  0  0  0  0
    8.8840    3.1260    3.7100 C   0  0  0  0  0  0  0  0  0  0  0  0
    8.2950    4.0300    3.8410 H   0  0  0  0  0  0  0  0  0  0  0  0
    9.4600    2.5030    4.8170 C   0  0  0  0  0  0  0  0  0  0  0  0
    9.3190    2.9200    5.8110 H   0  0  0  0  0  0  0  0  0  0  0  0
  1  2  2  0  0  0  0
  1  9  1  0  0  0  0
  1 12  1  0  0  0  0
  2  3  1  0  0  0  0
  2  4  1  0  0  0  0
  4  5  2  0  0  0  0
  4 16  1  0  0  0  0
  5  6  1  0  0  0  0
  5  7  1  0  0  0  0
  7  8  1  0  0  0  0
  7  9  2  0  0  0  0
  9 10  1  0  0  0  0
 10 11  1  0  0  0  0
 12 13  1  0  0  0  0
 12 15  2  0  0  0  0
 13 14  1  0  0  0  0
 13 28  1  0  0  0  0
 16 17  2  0  0  0  0
 16 18  1  0  0  0  0
 19 20  1  0  0  0  0
 19 24  1  0  0  0  0
 19 31  2  0  0  0  0
 20 21  1  0  0  0  0
 20 23  1  0  0  0  0
 20 39  1  0  0  0  0
 21 22  1  0  0  0  0
 24 25  1  0  0  0  0
 24 26  2  0  0  0  0
 26 27  1  0  0  0  0
 26 28  1  0  0  0  0
 28 29  2  0  0  0  0
 29 30  1  0  0  0  0
 29 31  1  0  0  0  0
 31 32  1  0  0  0  0
 33 34  1  0  0  0  0
 33 35  2  0  0  0  0
 33 42  1  0  0  0  0
 35 36  1  0  0  0  0
 35 37  1  0  0  0  0
 37 38  1  0  0  0  0
 37 39  2  0  0  0  0
 39 40  1  0  0  0  0
 40 41  1  0  0  0  0
 40 42  2  0  0  0  0
 42 43  1  0  0  0  0
M  CHG  1  16   1
M  CHG  1  18  -1
M  END
>  <name>
D30

>  <LOGEC50>
-1

>  <MolecularFormula>
C20H16O5N2

>  <ATCH1>
0.25999999

>  <ATCH2>
-0.1477

>  <ATCH3>
0.090999998

>  <ATCH4>
-0.1629

>  <ATCH5>
0.1116

>  <ATCH6>
-0.2877

>  <ATCH7>
-0.2148

>  <ATCH8>
0.42570001

>  <ATCH9>
-0.39579999

>  <ATCH10>
-0.32460001

>  <DIPV_X>
3.1308999

>  <DIPV_Y>
-1.3363

>  <DIPV_Z>
0.19140001

>  <DIPMOM>
3.4094999

>  <ESDL1>
-0.66420001

>  <ESDL2>
-0.94599998

>  <ESDL3>
-0.98659998

>  <ESDL4>
-0.42109999

>  <ESDL5>
-1.0243

>  <ESDL6>
-0.70039999

>  <ESDL7>
-0.41429999

>  <ESDL8>
-0.93000001

>  <ESDL9>
-0.7845

>  <ESDL10>
-0.34439999

>  <NSDL1>
6.0402002

>  <NSDL2>
3.4281001

>  <NSDL3>
1.0804

>  <NSDL4>
4.0356002

>  <NSDL5>
1.2915

>  <NSDL6>
1.6839

>  <NSDL7>
1.0901999

>  <NSDL8>
1.8805

>  <NSDL9>
0.59859997

>  <NSDL10>
1.0391001

>  <VDWVOL>
307.79996

>  <SURF_A>
364.0264

>  <MOFI_X>
1837.9072

>  <MOFI_Y>
15123.224

>  <MOFI_Z>
13701.326

>  <PEAX_X>
13.6143

>  <PEAX_Y>
1.6903

>  <PEAX_Z>
4.7316999

>  <MOL_WT>
364.35831

>  <S8_1DX>
9.434

>  <S8_1DY>
10.5818

>  <S8_1DZ>
6.8239999

>  <S8_1CX>
6.4758

>  <S8_1CY>
-5.4215999

>  <S8_1CZ>
-0.91070002

>  <LOGP>
3.6860001

>  <M_PNT>
178

>  <SUM_F>
0.67000002

>  <SUM_R>
0.16

$$$$
N31
  MOE2013           3D

 27 28  0  0  0  0  0  0  0  0999 V2000
    1.5450    0.7510   -0.0630 C   0  0  0  0  0  0  0  0  0  0  0  0
    0.2830    1.2940    0.2060 C   0  0  0  0  0  0  0  0  0  0  0  0
    0.1220    2.3640    0.0850 H   0  0  0  0  0  0  0  0  0  0  0  0
   -0.7460    0.4450    0.6330 C   0  0  0  0  0  0  0  0  0  0  0  0
   -0.5260   -0.9300    0.7840 C   0  0  0  0  0  0  0  0  0  0  0  0
   -1.3150   -1.6000    1.1180 H   0  0  0  0  0  0  0  0  0  0  0  0
    0.7330   -1.4600    0.4920 C   0  0  0  0  0  0  0  0  0  0  0  0
    0.9080   -2.5290    0.5930 H   0  0  0  0  0  0  0  0  0  0  0  0
    1.7620   -0.6270    0.0540 C   0  0  0  0  0  0  0  0  0  0  0  0
    2.9450   -1.2390   -0.2460 O   0  0  0  0  0  0  0  0  0  0  0  0
    3.4770   -0.6750   -0.8330 H   0  0  0  0  0  0  0  0  0  0  0  0
    2.6060    1.6840   -0.4820 C   0  0  0  0  0  0  0  0  0  0  0  0
    2.4310    2.3260   -1.5120 O   0  0  0  0  0  0  0  0  0  0  0  0
   -2.0670    1.0040    0.9330 N   0  3  0  0  0  0  0  0  0  0  0  0
   -2.1860    2.2370    0.9200 O   0  0  0  0  0  0  0  0  0  0  0  0
   -2.9840    0.2100    1.1870 O   0  5  0  0  0  0  0  0  0  0  0  0
    6.2380    2.2160    1.7250 C   0  0  0  0  0  0  0  0  0  0  0  0
    7.7060    2.4360    2.5940 Cl  0  0  0  0  0  0  0  0  0  0  0  0
    5.1630    1.5690    2.3330 C   0  0  0  0  0  0  0  0  0  0  0  0
    5.2440    1.2060    3.3550 H   0  0  0  0  0  0  0  0  0  0  0  0
    3.9680    1.3880    1.6300 C   0  0  0  0  0  0  0  0  0  0  0  0
    3.1450    0.8910    2.1360 H   0  0  0  0  0  0  0  0  0  0  0  0
    3.8540    1.8490    0.3120 C   0  0  0  0  0  0  0  0  0  0  0  0
    4.9370    2.5070   -0.2860 C   0  0  0  0  0  0  0  0  0  0  0  0
    4.8580    2.8830   -1.3050 H   0  0  0  0  0  0  0  0  0  0  0  0
    6.1300    2.6880    0.4180 C   0  0  0  0  0  0  0  0  0  0  0  0
    6.9640    3.1980   -0.0570 H   0  0  0  0  0  0  0  0  0  0  0  0
  1  2  1  0  0  0  0
  1  9  2  0  0  0  0
  1 12  1  0  0  0  0
  2  3  1  0  0  0  0
  2  4  2  0  0  0  0
  4  5  1  0  0  0  0
  4 14  1  0  0  0  0
  5  6  1  0  0  0  0
  5  7  2  0  0  0  0
  7  8  1  0  0  0  0
  7  9  1  0  0  0  0
  9 10  1  0  0  0  0
 10 11  1  0  0  0  0
 12 13  2  0  0  0  0
 12 23  1  0  0  0  0
 14 15  2  0  0  0  0
 14 16  1  0  0  0  0
 17 18  1  0  0  0  0
 17 19  1  0  0  0  0
 17 26  2  0  0  0  0
 19 20  1  0  0  0  0
 19 21  2  0  0  0  0
 21 22  1  0  0  0  0
 21 23  1  0  0  0  0
 23 24  2  0  0  0  0
 24 25  1  0  0  0  0
 24 26  1  0  0  0  0
 26 27  1  0  0  0  0
M  CHG  1  14   1
M  CHG  1  16  -1
M  END
>  <name>
N31

>  <LOGEC50>
0.47999999

>  <MolecularFormula>
C13H9O4N2Cl

>  <ATCH1>
0.2483

>  <ATCH2>
-0.1462

>  <ATCH3>
0.091799997

>  <ATCH4>
-0.16339999

>  <ATCH5>
0.1174

>  <ATCH6>
-0.2886

>  <ATCH7>
-0.2084

>  <ATCH8>
0.3493

>  <ATCH9>
-0.32839999

>  <ATCH10>
-0.15000001

>  <DIPV_X>
3.5820999

>  <DIPV_Y>
1.7919

>  <DIPV_Z>
0.69870001

>  <DIPMOM>
4.0658002

>  <ESDL1>
-41.8125

>  <ESDL2>
-27.2335

>  <ESDL3>
-2.0913999

>  <ESDL4>
-16.574699

>  <ESDL5>
-4.0222001

>  <ESDL6>
-3.3515

>  <ESDL7>
-6.0766001

>  <ESDL8>
-5.7076998

>  <ESDL9>
-3.4349

>  <ESDL10>
-2.7701001

>  <NSDL1>
0.9738

>  <NSDL2>
1.0278

>  <NSDL3>
1.1688

>  <NSDL4>
1.6686

>  <NSDL5>
0.96939999

>  <NSDL6>
1.1517

>  <NSDL7>
0.37830001

>  <NSDL8>
2.2232001

>  <NSDL9>
0.79909998

>  <NSDL10>
1.0453

>  <VDWVOL>
216.20004

>  <SURF_A>
259.55621

>  <MOFI_X>
1631.9397

>  <MOFI_Y>
5819.5015

>  <MOFI_Z>
4289.1333

>  <PEAX_X>
8.7624998

>  <PEAX_Y>
0.95920002

>  <PEAX_Z>
5.3520002

>  <MOL_WT>
277.66428

>  <S8_1DX>
5.6061001

>  <S8_1DY>
7.7775998

>  <S8_1DZ>
4.4484

>  <S8_1CX>
3.8719001

>  <S8_1CY>
-3.7972

>  <S8_1CZ>
0.2244

>  <LOGP>
4.6539998

>  <M_PNT>
170

>  <SUM_F>
0.67000002

>  <SUM_R>
0.16

$$$$
